Untitled Document
  ChemDraw08102313042D

 26 28  0  0  0  0  0  0  0  0999 V2000
   -1.0692   -0.0370    0.0000 N   0  0  0  0  0  0  0  0  0  0  0  0
   -1.7812    0.3741    0.0000 C   0  0  0  0  0  0  0  0  0  0  0  0
   -1.7812    1.1991    0.0000 C   0  0  0  0  0  0  0  0  0  0  0  0
   -2.4958    1.6116    0.0000 C   0  0  0  0  0  0  0  0  0  0  0  0
   -3.2103    1.1991    0.0000 N   0  0  0  0  0  0  0  0  0  0  0  0
   -3.2103    0.3741    0.0000 C   0  0  0  0  0  0  0  0  0  0  0  0
   -2.4958   -0.0384    0.0000 C   0  0  0  0  0  0  0  0  0  0  0  0
   -2.4958   -0.8605    0.0000 C   0  0  0  0  0  0  0  0  0  0  0  0
   -3.2078   -1.2716    0.0000 O   0  0  0  0  0  0  0  0  0  0  0  0
   -3.2078   -2.0937    0.0000 C   0  0  0  0  0  0  0  0  0  0  0  0
   -3.9198   -2.5049    0.0000 C   0  0  0  0  0  0  0  0  0  0  0  0
   -1.7837   -1.2716    0.0000 O   0  0  0  0  0  0  0  0  0  0  0  0
   -2.3242    2.4187    0.0000 N   0  0  0  0  0  0  0  0  0  0  0  0
   -1.5037    2.5049    0.0000 C   0  0  0  0  0  0  0  0  0  0  0  0
   -1.1681    1.7511    0.0000 C   0  0  0  0  0  0  0  0  0  0  0  0
   -0.3572    0.3741    0.0000 C   0  0  0  0  0  0  0  0  0  0  0  0
    0.3572   -0.0384    0.0000 C   0  0  0  0  0  0  0  0  0  0  0  0
    1.0717    0.3741    0.0000 N   0  0  0  0  0  0  0  0  0  0  0  0
    1.7837   -0.0370    0.0000 C   0  0  0  0  0  0  0  0  0  0  0  0
    2.4958    0.3741    0.0000 C   0  0  0  0  0  0  0  0  0  0  0  0
    3.2078   -0.0370    0.0000 C   0  0  0  0  0  0  0  0  0  0  0  0
    3.9198   -0.4480    0.0000 N   0  0  0  0  0  0  0  0  0  0  0  0
    1.7837   -0.8591    0.0000 O   0  0  0  0  0  0  0  0  0  0  0  0
    1.0717    1.1991    0.0000 C   0  0  0  0  0  0  0  0  0  0  0  0
    0.3572    1.6116    0.0000 C   0  0  0  0  0  0  0  0  0  0  0  0
   -0.3572    1.1991    0.0000 C   0  0  0  0  0  0  0  0  0  0  0  0
  1  2  1  0      
  2  3  2  0      
  3  4  1  0      
  4  5  2  0      
  5  6  1  0      
  6  7  2  0      
  2  7  1  0      
  7  8  1  0      
  8  9  1  0      
  9 10  1  0      
 10 11  1  0      
  8 12  2  0      
  4 13  1  0      
 13 14  1  0      
 14 15  2  0      
  3 15  1  0      
 16  1  1  6      
 16 17  1  0      
 17 18  1  0      
 18 19  1  0      
 19 20  1  0      
 20 21  1  0      
 21 22  3  0      
 19 23  2  0      
 18 24  1  0      
 24 25  1  0      
 25 26  1  0      
 16 26  1  0      
M  END

>  <RackCode>
HYCPK72334

>  <Cat. No.>
HY-156621

>  <Product Name>
Lepzacitinib

>  <ROW>
A

>  <COLUMN>
3

>  <CAS No.>
2321488-47-3

>  <MWt>
355.39

>  <Target>
JAK

>  <Saltdate>


>  <Smiles>
CCOC(C1=CN=C(NC=C2)C2=C1N[C@H]3CN(CCC3)C(CC#N)=O)=O

>  <Solvent>
DMSO Solution

>  <Batch No.>
292954

>  <Quantity>
10mM  * 50uL

>  <Pathway>
Epigenetics; JAK/STAT Signaling; Protein Tyrosine Kinase/RTK; Stem Cell/Wnt

>  <Synonyms>


>  <Formula>
C18H21N5O3

>  <Research_Area>
Inflammation/Immunology

>  <Clinical_Information>
No Development Reported

>  <SUPPLIER>
MedChemExpress

$$$$
Untitled Document
  ChemDraw11291715532D

 17 19  0  0  0  0  0  0  0  0999 V2000
    0.7145    1.4437    0.0000 O   0  0  0  0  0  0  0  0  0  0  0  0
    1.4289    1.0313    0.0000 C   0  0  0  0  0  0  0  0  0  0  0  0
    1.4289    0.2062    0.0000 C   0  0  0  0  0  0  0  0  0  0  0  0
    2.1434   -0.2062    0.0000 C   0  0  0  0  0  0  0  0  0  0  0  0
    2.1434   -1.0312    0.0000 C   0  0  0  0  0  0  0  0  0  0  0  0
    1.4289   -1.4437    0.0000 C   0  0  0  0  0  0  0  0  0  0  0  0
    0.7145   -1.0312    0.0000 C   0  0  0  0  0  0  0  0  0  0  0  0
    0.0000   -1.4437    0.0000 N   0  0  0  0  0  0  0  0  0  0  0  0
   -0.7145   -1.0313    0.0000 C   0  0  0  0  0  0  0  0  0  0  0  0
   -1.4289   -1.4437    0.0000 C   0  0  0  0  0  0  0  0  0  0  0  0
   -2.1434   -1.0313    0.0000 C   0  0  0  0  0  0  0  0  0  0  0  0
   -2.1434   -0.2062    0.0000 C   0  0  0  0  0  0  0  0  0  0  0  0
   -1.4289    0.2062    0.0000 C   0  0  0  0  0  0  0  0  0  0  0  0
   -0.7145   -0.2063    0.0000 C   0  0  0  0  0  0  0  0  0  0  0  0
    0.0000    0.2062    0.0000 N   0  0  0  0  0  0  0  0  0  0  0  0
    0.7145   -0.2063    0.0000 C   0  0  0  0  0  0  0  0  0  0  0  0
    2.1434    1.4437    0.0000 N   0  0  0  0  0  0  0  0  0  0  0  0
  1  2  2  0      
  2  3  1  0      
  3  4  2  0      
  4  5  1  0      
  5  6  2  0      
  6  7  1  0      
  7  8  2  0      
  8  9  1  0      
  9 10  2  0      
 10 11  1  0      
 11 12  2  0      
 12 13  1  0      
 13 14  2  0      
  9 14  1  0      
 14 15  1  0      
 15 16  2  0      
  7 16  1  0      
  3 16  1  0      
  2 17  1  0      
M  END

>  <RackCode>
HYCPK72334

>  <Cat. No.>
HY-W042191

>  <Product Name>
Oxychlororaphine

>  <ROW>
B

>  <COLUMN>
3

>  <CAS No.>
550-89-0

>  <MWt>
223.23

>  <Target>
Apoptosis; Bcl-2 Family; Caspase; Fungal; MDM-2/p53; PARP

>  <Saltdate>


>  <Smiles>
O=C(C1=CC=CC2=NC3=CC=CC=C3N=C21)N

>  <Solvent>
DMSO Solution

>  <Batch No.>
309902

>  <Quantity>
10mM  * 50uL

>  <Pathway>
Anti-infection; Apoptosis; Cell Cycle/DNA Damage; Epigenetics

>  <Synonyms>


>  <Formula>
C13H9N3O

>  <Research_Area>
Cancer; Infection

>  <Clinical_Information>
No Development Reported

>  <SUPPLIER>
MedChemExpress

$$$$
Untitled Document
  ChemDraw11221712372D

 29 31  0  0  0  0  0  0  0  0999 V2000
   -4.6440   -0.8250    0.0000 C   0  0  0  0  0  0  0  0  0  0  0  0
   -4.6440   -1.6500    0.0000 C   0  0  0  0  0  0  0  0  0  0  0  0
   -3.9295   -2.0624    0.0000 C   0  0  0  0  0  0  0  0  0  0  0  0
   -3.2150   -1.6500    0.0000 C   0  0  0  0  0  0  0  0  0  0  0  0
   -3.2150   -0.8250    0.0000 C   0  0  0  0  0  0  0  0  0  0  0  0
   -3.9295   -0.4125    0.0000 C   0  0  0  0  0  0  0  0  0  0  0  0
   -2.5005   -2.0624    0.0000 N   0  0  0  0  0  0  0  0  0  0  0  0
   -1.7861   -1.6500    0.0000 C   0  0  0  0  0  0  0  0  0  0  0  0
   -1.7861   -0.8250    0.0000 N   0  0  0  0  0  0  0  0  0  0  0  0
   -2.5005   -0.4125    0.0000 C   0  0  0  0  0  0  0  0  0  0  0  0
   -2.5005    0.4125    0.0000 N   0  0  0  0  0  0  0  0  0  0  0  0
   -3.2150    0.8250    0.0000 C   0  0  0  0  0  0  0  0  0  0  0  0
   -1.7861    0.8250    0.0000 C   0  0  0  0  0  0  0  0  0  0  0  0
   -1.0717    0.4125    0.0000 C   0  0  0  0  0  0  0  0  0  0  0  0
   -0.3572    0.8250    0.0000 C   0  0  0  0  0  0  0  0  0  0  0  0
   -0.3572    1.6500    0.0000 C   0  0  0  0  0  0  0  0  0  0  0  0
   -1.0717    2.0624    0.0000 C   0  0  0  0  0  0  0  0  0  0  0  0
   -1.7861    1.6500    0.0000 C   0  0  0  0  0  0  0  0  0  0  0  0
    0.3572    2.0624    0.0000 O   0  0  0  0  0  0  0  0  0  0  0  0
    1.0717    1.6500    0.0000 C   0  0  0  0  0  0  0  0  0  0  0  0
    0.3572    0.4125    0.0000 O   0  0  0  0  0  0  0  0  0  0  0  0
    1.0717    0.8250    0.0000 C   0  0  0  0  0  0  0  0  0  0  0  0
    1.7861    0.4125    0.0000 C   0  0  0  0  0  0  0  0  0  0  0  0
    2.5005    0.8250    0.0000 C   0  0  0  0  0  0  0  0  0  0  0  0
   -1.0717   -2.0624    0.0000 C   0  0  0  0  0  0  0  0  0  0  0  0
    3.2150    0.4125    0.0000 C   0  0  0  0  0  0  0  0  0  0  0  0
    3.2150   -0.4125    0.0000 O   0  0  0  0  0  0  0  0  0  0  0  0
    3.9295    0.8250    0.0000 N   0  0  0  0  0  0  0  0  0  0  0  0
    4.6440    0.4125    0.0000 O   0  0  0  0  0  0  0  0  0  0  0  0
  1  2  2  0      
  2  3  1  0      
  3  4  2  0      
  4  5  1  0      
  5  6  2  0      
  6  1  1  0      
  4  7  1  0      
  7  8  2  0      
  8  9  1  0      
  9 10  2  0      
 10  5  1  0      
 10 11  1  0      
 11 12  1  0      
 11 13  1  0      
 13 14  2  0      
 14 15  1  0      
 15 16  2  0      
 16 17  1  0      
 17 18  2  0      
 18 13  1  0      
 16 19  1  0      
 19 20  1  0      
 15 21  1  0      
 21 22  1  0      
 22 23  1  0      
 23 24  1  0      
  8 25  1  0      
 24 26  1  0      
 26 27  2  0      
 26 28  1  0      
 28 29  1  0      
M  END

>  <RackCode>
HYCPK72334

>  <Cat. No.>
HY-18947

>  <Product Name>
SKLB-23bb

>  <ROW>
C

>  <COLUMN>
3

>  <CAS No.>
1815580-06-3

>  <MWt>
396.44

>  <Target>
HDAC

>  <Saltdate>
Free Base

>  <Smiles>
CN(C1=CC(OCCCC(NO)=O)=C(OC)C=C1)C2=NC(C)=NC3=CC=CC=C32

>  <Solvent>
DMSO Solution

>  <Batch No.>
29772

>  <Quantity>
10mM  * 50uL

>  <Pathway>
Cell Cycle/DNA Damage; Epigenetics

>  <Synonyms>


>  <Formula>
C21H24N4O4

>  <Research_Area>
Cancer

>  <Clinical_Information>
No Development Reported

>  <SUPPLIER>
MedChemExpress

$$$$
Untitled Document
  ChemDraw05101917262D

 25 27  0  0  0  0  0  0  0  0999 V2000
    5.3585    0.2062    0.0000 Cl  0  0  0  0  0  0  0  0  0  0  0  0
    4.6441   -0.2062    0.0000 C   0  0  0  0  0  0  0  0  0  0  0  0
    3.9296    0.2062    0.0000 C   0  0  0  0  0  0  0  0  0  0  0  0
    3.2151   -0.2062    0.0000 C   0  0  0  0  0  0  0  0  0  0  0  0
    2.5006    0.2062    0.0000 N   0  0  0  0  0  0  0  0  0  0  0  0
    1.7862   -0.2062    0.0000 C   0  0  0  0  0  0  0  0  0  0  0  0
    1.7862   -1.0312    0.0000 N   0  0  0  0  0  0  0  0  0  0  0  0
    1.0717   -1.4438    0.0000 C   0  0  0  0  0  0  0  0  0  0  0  0
    0.3572   -1.0313    0.0000 C   0  0  0  0  0  0  0  0  0  0  0  0
    0.3572   -0.2062    0.0000 C   0  0  0  0  0  0  0  0  0  0  0  0
   -0.3572    0.2062    0.0000 C   0  0  0  0  0  0  0  0  0  0  0  0
   -0.3572    1.0312    0.0000 C   0  0  0  0  0  0  0  0  0  0  0  0
   -1.0717    1.4438    0.0000 C   0  0  0  0  0  0  0  0  0  0  0  0
   -1.7862    1.0313    0.0000 N   0  0  0  0  0  0  0  0  0  0  0  0
   -1.7862    0.2062    0.0000 C   0  0  0  0  0  0  0  0  0  0  0  0
   -2.5006   -0.2062    0.0000 N   0  0  0  0  0  0  0  0  0  0  0  0
   -3.2151    0.2062    0.0000 C   0  0  0  0  0  0  0  0  0  0  0  0
   -3.9296   -0.2062    0.0000 C   0  0  0  0  0  0  0  0  0  0  0  0
   -4.6441    0.2062    0.0000 C   0  0  0  0  0  0  0  0  0  0  0  0
   -5.3585   -0.2062    0.0000 O   0  0  0  0  0  0  0  0  0  0  0  0
   -1.0717   -0.2062    0.0000 C   0  0  0  0  0  0  0  0  0  0  0  0
    1.0717    0.2062    0.0000 N   0  0  0  0  0  0  0  0  0  0  0  0
    3.2151   -1.0313    0.0000 C   0  0  0  0  0  0  0  0  0  0  0  0
    3.9296   -1.4437    0.0000 C   0  0  0  0  0  0  0  0  0  0  0  0
    4.6441   -1.0312    0.0000 C   0  0  0  0  0  0  0  0  0  0  0  0
  1  2  1  0      
  2  3  2  0      
  3  4  1  0      
  4  5  1  0      
  5  6  1  0      
  6  7  2  0      
  7  8  1  0      
  8  9  2  0      
  9 10  1  0      
 10 11  1  0      
 11 12  2  0      
 12 13  1  0      
 13 14  2  0      
 14 15  1  0      
 15 16  1  0      
 16 17  1  0      
 17 18  1  0      
 18 19  1  0      
 19 20  1  0      
 15 21  2  0      
 11 21  1  0      
 10 22  2  0      
  6 22  1  0      
  4 23  2  0      
 23 24  1  0      
 24 25  2  0      
  2 25  1  0      
M  END

>  <RackCode>
HYCPK72334

>  <Cat. No.>
HY-11009

>  <Product Name>
CGP60474

>  <ROW>
D

>  <COLUMN>
3

>  <CAS No.>
164658-13-3

>  <MWt>
355.82

>  <Target>
CDK; PKC

>  <Saltdate>
Free Base

>  <Smiles>
ClC1=CC(NC2=NC=CC(C3=CC=NC(NCCCO)=C3)=N2)=CC=C1

>  <Solvent>
DMSO Solution

>  <Batch No.>
03173

>  <Quantity>
10mM  * 50uL

>  <Pathway>
Cell Cycle/DNA Damage; Epigenetics; TGF-beta/Smad

>  <Synonyms>


>  <Formula>
C18H18ClN5O

>  <Research_Area>
Cancer

>  <Clinical_Information>
No Development Reported

>  <SUPPLIER>
MedChemExpress

$$$$
Untitled Document
  ChemDraw04202210232D

 28 30  0  0  0  0  0  0  0  0999 V2000
   -0.0974   -1.1540    0.0000 N   0  0  0  0  0  0  0  0  0  0  0  0
   -0.8119   -1.5665    0.0000 C   0  0  0  0  0  0  0  0  0  0  0  0
   -1.5263   -1.1540    0.0000 C   0  0  0  0  0  0  0  0  0  0  0  0
   -1.5263   -0.3290    0.0000 N   0  0  0  0  0  0  0  0  0  0  0  0
   -0.8119    0.0835    0.0000 C   0  0  0  0  0  0  0  0  0  0  0  0
   -0.0974   -0.3290    0.0000 O   0  0  0  0  0  0  0  0  0  0  0  0
   -0.8119    0.9085    0.0000 C   0  0  0  0  0  0  0  0  0  0  0  0
   -0.0974    1.3210    0.0000 C   0  0  0  0  0  0  0  0  0  0  0  0
   -0.0974    2.1460    0.0000 C   0  0  0  0  0  0  0  0  0  0  0  0
   -0.8119    2.5585    0.0000 C   0  0  0  0  0  0  0  0  0  0  0  0
   -1.5263    2.1460    0.0000 N   0  0  0  0  0  0  0  0  0  0  0  0
   -1.5263    1.3210    0.0000 C   0  0  0  0  0  0  0  0  0  0  0  0
   -2.2408   -1.5665    0.0000 C   0  0  0  0  0  0  0  0  0  0  0  0
   -2.9552   -1.1540    0.0000 C   0  0  0  0  0  0  0  0  0  0  0  0
   -3.6697   -1.5665    0.0000 S   0  0  0  0  0  0  0  0  0  0  0  0
   -4.3841   -1.1540    0.0000 C   0  0  0  0  0  0  0  0  0  0  0  0
   -0.8119   -2.3915    0.0000 O   0  0  0  0  0  0  0  0  0  0  0  0
    0.6171   -1.5665    0.0000 C   0  0  0  0  0  0  0  0  0  0  0  0
    1.3707   -1.2309    0.0000 N   0  0  0  0  0  0  0  0  0  0  0  0
    1.9228   -1.8440    0.0000 C   0  0  0  0  0  0  0  0  0  0  0  0
    1.5103   -2.5585    0.0000 C   0  0  0  0  0  0  0  0  0  0  0  0
    0.7033   -2.3870    0.0000 S   0  0  0  0  0  0  0  0  0  0  0  0
    2.7432   -1.7578    0.0000 C   0  0  0  0  0  0  0  0  0  0  0  0
    3.2281   -2.4252    0.0000 C   0  0  0  0  0  0  0  0  0  0  0  0
    4.0486   -2.3390    0.0000 C   0  0  0  0  0  0  0  0  0  0  0  0
    4.3841   -1.5853    0.0000 C   0  0  0  0  0  0  0  0  0  0  0  0
    3.8992   -0.9179    0.0000 C   0  0  0  0  0  0  0  0  0  0  0  0
    3.0787   -1.0041    0.0000 C   0  0  0  0  0  0  0  0  0  0  0  0
  1  2  1  0      
  2  3  1  0      
  3  4  1  6      
  4  5  1  0      
  5  6  2  0      
  5  7  1  0      
  7  8  1  0      
  8  9  2  0      
  9 10  1  0      
 10 11  2  0      
 11 12  1  0      
  7 12  2  0      
  3 13  1  0      
 13 14  1  0      
 14 15  1  0      
 15 16  1  0      
  2 17  2  0      
  1 18  1  0      
 18 19  2  0      
 19 20  1  0      
 20 21  2  0      
 21 22  1  0      
 18 22  1  0      
 20 23  1  0      
 23 24  2  0      
 24 25  1  0      
 25 26  2  0      
 26 27  1  0      
 27 28  2  0      
 23 28  1  0      
M  END

>  <RackCode>
HYCPK72334

>  <Cat. No.>
HY-145946

>  <Product Name>
BRM/BRG1 ATP Inhibitor-2

>  <ROW>
E

>  <COLUMN>
3

>  <CAS No.>
2368900-77-8

>  <MWt>
412.53

>  <Target>
Epigenetic Reader Domain

>  <Saltdate>


>  <Smiles>
O=C(C1=CN=CC=C1)N[C@@H](CCSC)C(NC2=NC(C3=CC=CC=C3)=CS2)=O

>  <Solvent>
DMSO Solution

>  <Batch No.>
153117

>  <Quantity>
10mM  * 50uL

>  <Pathway>
Epigenetics

>  <Synonyms>


>  <Formula>
C20H20N4O2S2

>  <Research_Area>
Cancer

>  <Clinical_Information>
No Development Reported

>  <SUPPLIER>
MedChemExpress

$$$$
Untitled Document
  ChemDraw12281812372D

 29 32  0  0  0  0  0  0  0  0999 V2000
    0.3020    0.3020    0.0000 O   0  0  0  0  0  0  0  0  0  0  0  0
    0.7145   -0.4125    0.0000 S   0  0  0  0  0  0  0  0  0  0  0  0
    1.4289    0.0000    0.0000 C   0  0  0  0  0  0  0  0  0  0  0  0
    2.1434   -0.4125    0.0000 C   0  0  0  0  0  0  0  0  0  0  0  0
    2.8579    0.0000    0.0000 C   0  0  0  0  0  0  0  0  0  0  0  0
    2.8579    0.8250    0.0000 C   0  0  0  0  0  0  0  0  0  0  0  0
    3.5724    1.2375    0.0000 N   0  0  0  0  0  0  0  0  0  0  0  0
    4.2868    0.8250    0.0000 C   0  0  0  0  0  0  0  0  0  0  0  0
    4.2868    0.0000    0.0000 N   0  0  0  0  0  0  0  0  0  0  0  0
    3.5724   -0.4125    0.0000 C   0  0  0  0  0  0  0  0  0  0  0  0
    3.5724   -1.2375    0.0000 O   0  0  0  0  0  0  0  0  0  0  0  0
    5.0013    1.2375    0.0000 O   0  0  0  0  0  0  0  0  0  0  0  0
    2.1434    1.2375    0.0000 C   0  0  0  0  0  0  0  0  0  0  0  0
    1.4289    0.8250    0.0000 C   0  0  0  0  0  0  0  0  0  0  0  0
    0.0000   -0.8250    0.0000 N   0  0  0  0  0  0  0  0  0  0  0  0
   -0.7145   -0.4125    0.0000 C   0  0  0  0  0  0  0  0  0  0  0  0
   -1.4289   -0.8250    0.0000 C   0  0  0  0  0  0  0  0  0  0  0  0
   -2.1434   -0.4125    0.0000 C   0  0  0  0  0  0  0  0  0  0  0  0
   -2.1434    0.4125    0.0000 C   0  0  0  0  0  0  0  0  0  0  0  0
   -2.8579    0.8250    0.0000 O   0  0  0  0  0  0  0  0  0  0  0  0
   -3.5724    0.4125    0.0000 C   0  0  0  0  0  0  0  0  0  0  0  0
   -3.5724   -0.4125    0.0000 C   0  0  0  0  0  0  0  0  0  0  0  0
   -4.2868   -0.8250    0.0000 C   0  0  0  0  0  0  0  0  0  0  0  0
   -5.0013   -0.4125    0.0000 C   0  0  0  0  0  0  0  0  0  0  0  0
   -5.0013    0.4125    0.0000 N   0  0  0  0  0  0  0  0  0  0  0  0
   -4.2868    0.8250    0.0000 C   0  0  0  0  0  0  0  0  0  0  0  0
   -1.4289    0.8250    0.0000 C   0  0  0  0  0  0  0  0  0  0  0  0
   -0.7145    0.4125    0.0000 C   0  0  0  0  0  0  0  0  0  0  0  0
    1.1270   -1.1270    0.0000 O   0  0  0  0  0  0  0  0  0  0  0  0
  1  2  2  0      
  2  3  1  0      
  3  4  2  0      
  4  5  1  0      
  5  6  2  0      
  6  7  1  0      
  7  8  1  0      
  8  9  1  0      
  9 10  1  0      
  5 10  1  0      
 10 11  2  0      
  8 12  2  0      
  6 13  1  0      
 13 14  2  0      
  3 14  1  0      
  2 15  1  0      
 15 16  1  0      
 16 17  2  0      
 17 18  1  0      
 18 19  2  0      
 19 20  1  0      
 20 21  1  0      
 21 22  2  0      
 22 23  1  0      
 23 24  2  0      
 24 25  1  0      
 25 26  2  0      
 21 26  1  0      
 19 27  1  0      
 27 28  2  0      
 16 28  1  0      
  2 29  2  0      
M  END

>  <RackCode>
HYCPK72334

>  <Cat. No.>
HY-123194

>  <Product Name>
SIRT2/6-IN-1

>  <ROW>
F

>  <COLUMN>
3

>  <CAS No.>
1214468-35-5

>  <MWt>
410.40

>  <Target>
Histone Demethylase; Sirtuin

>  <Saltdate>


>  <Smiles>
O=S(C1=CC2=C(C=C1)NC(NC2=O)=O)(NC3=CC=C(C=C3)OC4=CC=CN=C4)=O

>  <Solvent>
DMSO Solution

>  <Batch No.>
522223

>  <Quantity>
10mM  * 50uL

>  <Pathway>
Cell Cycle/DNA Damage; Epigenetics

>  <Synonyms>


>  <Formula>
C19H14N4O5S

>  <Research_Area>
Metabolic Disease

>  <Clinical_Information>
No Development Reported

>  <SUPPLIER>
MedChemExpress

$$$$
Untitled Document
  ChemDraw11282315242D

 50 53  0  0  0  0  0  0  0  0999 V2000
    4.1380   -0.8551    0.0000 O   0  0  0  0  0  0  0  0  0  0  0  0
    4.1380   -1.6801    0.0000 C   0  0  0  0  0  0  0  0  0  0  0  0
    4.8524   -2.0926    0.0000 O   0  0  0  0  0  0  0  0  0  0  0  0
    3.4235   -2.0926    0.0000 C   0  0  0  0  0  0  0  0  0  0  0  0
    2.7090   -2.5051    0.0000 F   0  0  0  0  0  0  0  0  0  0  0  0
    3.4235   -2.9176    0.0000 F   0  0  0  0  0  0  0  0  0  0  0  0
    2.7090   -1.6801    0.0000 F   0  0  0  0  0  0  0  0  0  0  0  0
   -0.3572    1.6801    0.0000 O   0  0  0  0  0  0  0  0  0  0  0  0
   -0.3572    0.8551    0.0000 C   0  0  0  0  0  0  0  0  0  0  0  0
    0.3572    0.4426    0.0000 N   0  0  0  0  0  0  0  0  0  0  0  0
    1.0717    0.8551    0.0000 C   0  0  0  0  0  0  0  0  0  0  0  0
    1.0717    1.6801    0.0000 C   0  0  0  0  0  0  0  0  0  0  0  0
    1.7862    2.0926    0.0000 C   0  0  0  0  0  0  0  0  0  0  0  0
    2.5006    1.6801    0.0000 C   0  0  0  0  0  0  0  0  0  0  0  0
    2.5006    0.8551    0.0000 C   0  0  0  0  0  0  0  0  0  0  0  0
    1.7862    0.4426    0.0000 C   0  0  0  0  0  0  0  0  0  0  0  0
    3.2151    2.0926    0.0000 C   0  0  0  0  0  0  0  0  0  0  0  0
    3.2151    2.9176    0.0000 O   0  0  0  0  0  0  0  0  0  0  0  0
    3.9296    1.6801    0.0000 N   0  0  0  0  0  0  0  0  0  0  0  0
    4.6441    2.0926    0.0000 C   0  0  0  0  0  0  0  0  0  0  0  0
    5.3585    1.6801    0.0000 C   0  0  0  0  0  0  0  0  0  0  0  0
    6.0730    2.0926    0.0000 C   0  0  0  0  0  0  0  0  0  0  0  0
    6.7875    1.6801    0.0000 C   0  0  0  0  0  0  0  0  0  0  0  0
    7.5019    2.0926    0.0000 C   0  0  0  0  0  0  0  0  0  0  0  0
    8.2164    1.6801    0.0000 C   0  0  0  0  0  0  0  0  0  0  0  0
    8.9309    2.0926    0.0000 N   0  0  0  0  0  0  0  0  0  0  0  0
   -1.0717    0.4426    0.0000 C   0  0  0  0  0  0  0  0  0  0  0  0
   -1.0717   -0.3824    0.0000 C   0  0  0  0  0  0  0  0  0  0  0  0
   -1.7862   -0.7949    0.0000 C   0  0  0  0  0  0  0  0  0  0  0  0
   -2.5006   -0.3824    0.0000 C   0  0  0  0  0  0  0  0  0  0  0  0
   -2.5006    0.4426    0.0000 C   0  0  0  0  0  0  0  0  0  0  0  0
   -1.7862    0.8551    0.0000 C   0  0  0  0  0  0  0  0  0  0  0  0
   -3.2151   -0.7949    0.0000 C   0  0  0  0  0  0  0  0  0  0  0  0
   -3.9296   -0.3824    0.0000 N   0  0  0  0  0  0  0  0  0  0  0  0
   -4.6441   -0.7949    0.0000 C   0  0  0  0  0  0  0  0  0  0  0  0
   -4.6441   -1.6199    0.0000 O   0  0  0  0  0  0  0  0  0  0  0  0
   -5.3585   -0.3824    0.0000 C   0  0  0  0  0  0  0  0  0  0  0  0
   -5.3585    0.4426    0.0000 C   0  0  0  0  0  0  0  0  0  0  0  0
   -6.0730    0.8551    0.0000 C   0  0  0  0  0  0  0  0  0  0  0  0
   -6.7875    0.4426    0.0000 C   0  0  0  0  0  0  0  0  0  0  0  0
   -7.5019    0.8551    0.0000 N   0  0  0  0  0  0  0  0  0  0  0  0
   -8.2164    0.4426    0.0000 C   0  0  0  0  0  0  0  0  0  0  0  0
   -8.9309    0.8551    0.0000 O   0  0  0  0  0  0  0  0  0  0  0  0
   -8.2164   -0.3824    0.0000 C   0  0  0  0  0  0  0  0  0  0  0  0
   -7.5019   -0.7949    0.0000 O   0  0  0  0  0  0  0  0  0  0  0  0
   -6.7875   -0.3824    0.0000 C   0  0  0  0  0  0  0  0  0  0  0  0
   -6.0730   -0.7949    0.0000 C   0  0  0  0  0  0  0  0  0  0  0  0
   -3.9296    0.4426    0.0000 C   0  0  0  0  0  0  0  0  0  0  0  0
   -4.3421    1.1570    0.0000 C   0  0  0  0  0  0  0  0  0  0  0  0
   -3.5171    1.1570    0.0000 C   0  0  0  0  0  0  0  0  0  0  0  0
  1  2  2  0      
  2  3  1  0      
  2  4  1  0      
  4  5  1  0      
  4  6  1  0      
  4  7  1  0      
  8  9  2  0      
  9 10  1  0      
 10 11  1  0      
 11 12  2  0      
 12 13  1  0      
 13 14  2  0      
 14 15  1  0      
 15 16  2  0      
 11 16  1  0      
 14 17  1  0      
 17 18  2  0      
 17 19  1  0      
 19 20  1  0      
 20 21  1  0      
 21 22  1  0      
 22 23  1  0      
 23 24  1  0      
 24 25  1  0      
 25 26  1  0      
  9 27  1  0      
 27 28  2  0      
 28 29  1  0      
 29 30  2  0      
 30 31  1  0      
 31 32  2  0      
 27 32  1  0      
 30 33  1  0      
 33 34  1  0      
 34 35  1  0      
 35 36  2  0      
 35 37  1  0      
 37 38  2  0      
 38 39  1  0      
 39 40  2  0      
 40 41  1  0      
 41 42  1  0      
 42 43  2  0      
 42 44  1  0      
 44 45  1  0      
 45 46  1  0      
 40 46  1  0      
 46 47  2  0      
 37 47  1  0      
 34 48  1  0      
 48 49  1  0      
 49 50  1  0      
 48 50  1  0      
M  END

>  <RackCode>
HYCPK72334

>  <Cat. No.>
HY-157251

>  <Product Name>
UNC8153 (TFA)

>  <ROW>
G

>  <COLUMN>
3

>  <CAS No.>
2929304-61-8

>  <MWt>
697.70

>  <Target>
Histone Methyltransferase

>  <Saltdate>
Trifluoroacetate

>  <Smiles>
O=C(C(F)(F)F)O.O=C(C1=CC=C(CN(C2CC2)C(C3=CC=C4NC(COC4=C3)=O)=O)C=C1)NC5=CC=C(C(NCCCCCCN)=O)C=C5

>  <Solvent>
DMSO Solution

>  <Batch No.>
354675

>  <Quantity>
10mM  * 50uL

>  <Pathway>
Epigenetics

>  <Synonyms>


>  <Formula>
C35H38F3N5O7

>  <Research_Area>
Cancer

>  <Clinical_Information>
No Development Reported

>  <SUPPLIER>
MedChemExpress

$$$$
Untitled Document
  ChemDraw02091709332D

 28 30  0  0  0  0  0  0  0  0999 V2000
   -2.5005    0.2063    0.0000 C   0  0  0  0  0  0  0  0  0  0  0  0
   -1.7861   -0.2062    0.0000 C   0  0  0  0  0  0  0  0  0  0  0  0
   -1.0717    0.2063    0.0000 C   0  0  0  0  0  0  0  0  0  0  0  0
   -0.3572   -0.2062    0.0000 C   0  0  0  0  0  0  0  0  0  0  0  0
   -0.3572   -1.0312    0.0000 C   0  0  0  0  0  0  0  0  0  0  0  0
   -1.0717   -1.4438    0.0000 C   0  0  0  0  0  0  0  0  0  0  0  0
   -1.7861   -1.0312    0.0000 C   0  0  0  0  0  0  0  0  0  0  0  0
   -2.5005    1.0313    0.0000 O   0  0  0  0  0  0  0  0  0  0  0  0
   -3.2150   -0.2062    0.0000 O   0  0  0  0  0  0  0  0  0  0  0  0
    0.3572   -1.4438    0.0000 N   0  0  0  0  0  0  0  0  0  0  0  0
    1.0717   -1.0313    0.0000 C   0  0  0  0  0  0  0  0  0  0  0  0
    1.7861   -1.4438    0.0000 C   0  0  0  0  0  0  0  0  0  0  0  0
    1.7861   -2.2687    0.0000 N   0  0  0  0  0  0  0  0  0  0  0  0
    1.0717   -2.6812    0.0000 C   0  0  0  0  0  0  0  0  0  0  0  0
    0.3572   -2.2687    0.0000 C   0  0  0  0  0  0  0  0  0  0  0  0
    2.5005   -2.6812    0.0000 C   0  0  0  0  0  0  0  0  0  0  0  0
    0.3572    0.2063    0.0000 N   0  0  0  0  0  0  0  0  0  0  0  0
    0.3572    1.0313    0.0000 C   0  0  0  0  0  0  0  0  0  0  0  0
    1.0717    1.4438    0.0000 C   0  0  0  0  0  0  0  0  0  0  0  0
    1.7861    1.0313    0.0000 C   0  0  0  0  0  0  0  0  0  0  0  0
    2.5005    1.4438    0.0000 C   0  0  0  0  0  0  0  0  0  0  0  0
    2.5005    2.2687    0.0000 C   0  0  0  0  0  0  0  0  0  0  0  0
    1.7861    2.6812    0.0000 C   0  0  0  0  0  0  0  0  0  0  0  0
    1.0717    2.2687    0.0000 C   0  0  0  0  0  0  0  0  0  0  0  0
   -0.3572    1.4438    0.0000 O   0  0  0  0  0  0  0  0  0  0  0  0
    3.2150    1.0313    0.0000 O   0  0  0  0  0  0  0  0  0  0  0  0
    3.9303    1.4438    0.0000 C   0  0  0  0  0  0  0  0  0  0  0  0
   -3.9303    0.2063    0.0000 C   0  0  0  0  0  0  0  0  0  0  0  0
  1  2  1  0      
  2  3  1  0      
  3  4  2  0      
  4  5  1  0      
  5  6  2  0      
  6  7  1  0      
  2  7  2  0      
  1  8  2  0      
  1  9  1  0      
 10 11  1  0      
 11 12  1  0      
 12 13  1  0      
 13 14  1  0      
 14 15  1  0      
 10 15  1  0      
 13 16  1  0      
  5 10  1  0      
 18 19  1  0      
 19 20  1  0      
 20 21  2  0      
 21 22  1  0      
 22 23  2  0      
 23 24  1  0      
 19 24  2  0      
 18 25  2  0      
 26 27  1  0      
 21 26  1  0      
 17 18  1  0      
  4 17  1  0      
  9 28  1  0      
M  END

>  <RackCode>
HYCPK72334

>  <Cat. No.>
HY-19347

>  <Product Name>
WDR5-0103

>  <ROW>
H

>  <COLUMN>
3

>  <CAS No.>
890190-22-4

>  <MWt>
383.44

>  <Target>
Histone Methyltransferase

>  <Saltdate>
Free Base

>  <Smiles>
O=C(OC)C1=CC=C(N2CCN(C)CC2)C(NC(C3=CC=CC(OC)=C3)=O)=C1

>  <Solvent>
DMSO Solution

>  <Batch No.>
153133

>  <Quantity>
10mM  * 50uL

>  <Pathway>
Epigenetics

>  <Synonyms>
WD-Repeat Protein 5-0103

>  <Formula>
C21H25N3O4

>  <Research_Area>
Cancer

>  <Clinical_Information>
No Development Reported

>  <SUPPLIER>
MedChemExpress

$$$$
Untitled Document
  ChemDraw10132316472D

 21 23  0  0  0  0  0  0  0  0999 V2000
    1.9110    2.2662    0.0000 O   0  0  0  0  0  0  0  0  0  0  0  0
    1.9110    1.4413    0.0000 C   0  0  0  0  0  0  0  0  0  0  0  0
    2.6255    1.0288    0.0000 N   0  0  0  0  0  0  0  0  0  0  0  0
    3.3400    1.4413    0.0000 O   0  0  0  0  0  0  0  0  0  0  0  0
    1.1967    1.0288    0.0000 C   0  0  0  0  0  0  0  0  0  0  0  0
    1.1967    0.2038    0.0000 C   0  0  0  0  0  0  0  0  0  0  0  0
    0.4822   -0.2087    0.0000 C   0  0  0  0  0  0  0  0  0  0  0  0
   -0.2323    0.2038    0.0000 C   0  0  0  0  0  0  0  0  0  0  0  0
   -0.2323    1.0288    0.0000 C   0  0  0  0  0  0  0  0  0  0  0  0
    0.4822    1.4413    0.0000 C   0  0  0  0  0  0  0  0  0  0  0  0
   -0.9467   -0.2087    0.0000 C   0  0  0  0  0  0  0  0  0  0  0  0
   -1.6612    0.2038    0.0000 N   0  0  0  0  0  0  0  0  0  0  0  0
   -1.7474    1.0243    0.0000 N   0  0  0  0  0  0  0  0  0  0  0  0
   -2.5543    1.1958    0.0000 N   0  0  0  0  0  0  0  0  0  0  0  0
   -2.9668    0.4813    0.0000 N   0  0  0  0  0  0  0  0  0  0  0  0
   -2.4148   -0.1318    0.0000 C   0  0  0  0  0  0  0  0  0  0  0  0
   -2.5863   -0.9387    0.0000 C   0  0  0  0  0  0  0  0  0  0  0  0
   -3.3400   -1.2743    0.0000 S   0  0  0  0  0  0  0  0  0  0  0  0
   -3.2538   -2.0947    0.0000 C   0  0  0  0  0  0  0  0  0  0  0  0
   -2.4468   -2.2662    0.0000 C   0  0  0  0  0  0  0  0  0  0  0  0
   -2.0343   -1.5518    0.0000 C   0  0  0  0  0  0  0  0  0  0  0  0
  1  2  2  0      
  2  3  1  0      
  3  4  1  0      
  2  5  1  0      
  5  6  2  0      
  6  7  1  0      
  7  8  2  0      
  8  9  1  0      
  9 10  2  0      
  5 10  1  0      
  8 11  1  0      
 11 12  1  0      
 12 13  1  0      
 13 14  2  0      
 14 15  1  0      
 15 16  2  0      
 12 16  1  0      
 16 17  1  0      
 17 18  1  0      
 18 19  1  0      
 19 20  2  0      
 20 21  1  0      
 17 21  2  0      
M  END

>  <RackCode>
HYCPK72334

>  <Cat. No.>
HY-156850

>  <Product Name>
ITF 3756

>  <ROW>
I

>  <COLUMN>
3

>  <CAS No.>
2247608-27-9

>  <MWt>
301.32

>  <Target>
HDAC

>  <Saltdate>


>  <Smiles>
O=C(C1=CC=C(CN2N=NN=C2C3=CC=CS3)C=C1)NO

>  <Solvent>
DMSO Solution

>  <Batch No.>
305946

>  <Quantity>
10mM  * 50uL

>  <Pathway>
Cell Cycle/DNA Damage; Epigenetics

>  <Synonyms>


>  <Formula>
C13H11N5O2S

>  <Research_Area>
Cancer

>  <Clinical_Information>
No Development Reported

>  <SUPPLIER>
MedChemExpress

$$$$
Untitled Document
  ChemDraw12231615062D

 22 24  0  0  0  0  0  0  0  0999 V2000
   -3.5044    0.8408    0.0000 C   0  0  0  0  0  0  0  0  0  0  0  0
   -3.9169    0.1264    0.0000 C   0  0  0  0  0  0  0  0  0  0  0  0
   -3.3649   -0.4867    0.0000 S   0  0  0  0  0  0  0  0  0  0  0  0
   -2.6112   -0.1512    0.0000 C   0  0  0  0  0  0  0  0  0  0  0  0
   -2.6975    0.6693    0.0000 C   0  0  0  0  0  0  0  0  0  0  0  0
   -1.8991   -0.5622    0.0000 C   0  0  0  0  0  0  0  0  0  0  0  0
   -1.1872   -0.1512    0.0000 C   0  0  0  0  0  0  0  0  0  0  0  0
   -0.4752   -0.5622    0.0000 C   0  0  0  0  0  0  0  0  0  0  0  0
    0.2368   -0.1512    0.0000 C   0  0  0  0  0  0  0  0  0  0  0  0
   -0.4752   -1.3844    0.0000 O   0  0  0  0  0  0  0  0  0  0  0  0
    0.9513   -0.5637    0.0000 C   0  0  0  0  0  0  0  0  0  0  0  0
    1.6658   -0.1512    0.0000 C   0  0  0  0  0  0  0  0  0  0  0  0
    1.6658    0.6738    0.0000 C   0  0  0  0  0  0  0  0  0  0  0  0
    0.9513    1.0863    0.0000 C   0  0  0  0  0  0  0  0  0  0  0  0
    0.2368    0.6738    0.0000 C   0  0  0  0  0  0  0  0  0  0  0  0
    0.9513   -1.3858    0.0000 O   0  0  0  0  0  0  0  0  0  0  0  0
    2.3803   -0.5637    0.0000 C   0  0  0  0  0  0  0  0  0  0  0  0
    3.0948   -0.1512    0.0000 C   0  0  0  0  0  0  0  0  0  0  0  0
    3.0948    0.6738    0.0000 C   0  0  0  0  0  0  0  0  0  0  0  0
    2.3803    1.0863    0.0000 O   0  0  0  0  0  0  0  0  0  0  0  0
    3.9169    0.6738    0.0000 C   0  0  0  0  0  0  0  0  0  0  0  0
    3.5059    1.3858    0.0000 C   0  0  0  0  0  0  0  0  0  0  0  0
  1  2  2  0      
  2  3  1  0      
  3  4  1  0      
  4  5  2  0      
  5  1  1  0      
  4  6  1  0      
  6  7  2  0      
  7  8  1  0      
  8  9  1  0      
  8 10  2  0      
  9 11  2  0      
 11 12  1  0      
 12 13  2  0      
 13 14  1  0      
 14 15  2  0      
 15  9  1  0      
 11 16  1  0      
 12 17  1  0      
 17 18  2  0      
 18 19  1  0      
 19 20  1  0      
 20 13  1  0      
 19 21  1  0      
 19 22  1  0      
M  END

>  <RackCode>
HYCPK72334

>  <Cat. No.>
HY-100693

>  <Product Name>
SYP-5

>  <ROW>
J

>  <COLUMN>
3

>  <CAS No.>
1384268-04-5

>  <MWt>
312.38

>  <Target>
HIF/HIF Prolyl-Hydroxylase

>  <Saltdate>
Free Base

>  <Smiles>
O=C(C1=C(O)C(C=CC(C)(C)O2)=C2C=C1)/C=C/C3=CC=CS3

>  <Solvent>
DMSO Solution

>  <Batch No.>
22901

>  <Quantity>
10mM  * 50uL

>  <Pathway>
Metabolic Enzyme/Protease

>  <Synonyms>


>  <Formula>
C18H16O3S

>  <Research_Area>
Cancer

>  <Clinical_Information>
No Development Reported

>  <SUPPLIER>
MedChemExpress

$$$$
Untitled Document
  ChemDraw01041913302D

 38 42  0  0  0  0  0  0  0  0999 V2000
   -0.7048    1.1418    0.0000 C   0  0  0  0  0  0  0  0  0  0  0  0
   -0.7048    0.3168    0.0000 C   0  0  0  0  0  0  0  0  0  0  0  0
   -1.4193   -0.0957    0.0000 C   0  0  0  0  0  0  0  0  0  0  0  0
   -2.1338    0.3168    0.0000 C   0  0  0  0  0  0  0  0  0  0  0  0
   -2.1338    1.1418    0.0000 C   0  0  0  0  0  0  0  0  0  0  0  0
   -1.4193    1.5543    0.0000 C   0  0  0  0  0  0  0  0  0  0  0  0
    0.0096    1.5543    0.0000 N   0  0  0  0  0  0  0  0  0  0  0  0
   -2.8483   -0.0957    0.0000 N   0  0  0  0  0  0  0  0  0  0  0  0
   -3.5627    0.3168    0.0000 C   0  0  0  0  0  0  0  0  0  0  0  0
   -4.2772   -0.0957    0.0000 C   0  0  0  0  0  0  0  0  0  0  0  0
   -4.2772   -0.9207    0.0000 C   0  0  0  0  0  0  0  0  0  0  0  0
   -4.9917   -1.3332    0.0000 C   0  0  0  0  0  0  0  0  0  0  0  0
   -5.7061   -0.9207    0.0000 C   0  0  0  0  0  0  0  0  0  0  0  0
   -5.7061   -0.0957    0.0000 C   0  0  0  0  0  0  0  0  0  0  0  0
   -4.9917    0.3168    0.0000 C   0  0  0  0  0  0  0  0  0  0  0  0
   -6.4206   -1.3332    0.0000 N   0  3  0  0  0  0  0  0  0  0  0  0
   -6.4206   -2.1582    0.0000 O   0  0  0  0  0  0  0  0  0  0  0  0
   -7.1351   -0.9207    0.0000 O   0  5  0  0  0  0  0  0  0  0  0  0
    2.1530    1.1418    0.0000 C   0  0  0  0  0  0  0  0  0  0  0  0
    1.4386    1.5543    0.0000 C   0  0  0  0  0  0  0  0  0  0  0  0
    0.7241    1.1418    0.0000 C   0  0  0  0  0  0  0  0  0  0  0  0
    0.7241    0.3168    0.0000 C   0  0  0  0  0  0  0  0  0  0  0  0
    1.4386   -0.0957    0.0000 C   0  0  0  0  0  0  0  0  0  0  0  0
    2.1530    0.3168    0.0000 N   0  0  0  0  0  0  0  0  0  0  0  0
    2.9377    1.3967    0.0000 N   0  0  0  0  0  0  0  0  0  0  0  0
    3.4226    0.7293    0.0000 C   0  0  0  0  0  0  0  0  0  0  0  0
    2.9377    0.0618    0.0000 C   0  0  0  0  0  0  0  0  0  0  0  0
    4.2476    0.7293    0.0000 C   0  0  0  0  0  0  0  0  0  0  0  0
    4.6601    1.4438    0.0000 C   0  0  0  0  0  0  0  0  0  0  0  0
    5.4851    1.4438    0.0000 C   0  0  0  0  0  0  0  0  0  0  0  0
    5.8976    0.7293    0.0000 C   0  0  0  0  0  0  0  0  0  0  0  0
    5.4851    0.0148    0.0000 C   0  0  0  0  0  0  0  0  0  0  0  0
    4.6601    0.0148    0.0000 C   0  0  0  0  0  0  0  0  0  0  0  0
    6.7226    0.7293    0.0000 O   0  0  0  0  0  0  0  0  0  0  0  0
    7.1351    1.4438    0.0000 C   0  0  0  0  0  0  0  0  0  0  0  0
    4.2476    2.1582    0.0000 O   0  0  0  0  0  0  0  0  0  0  0  0
    3.4226    2.1582    0.0000 C   0  0  0  0  0  0  0  0  0  0  0  0
    5.8976   -0.6997    0.0000 Cl  0  0  0  0  0  0  0  0  0  0  0  0
  1  2  1  0      
  2  3  1  0      
  3  4  1  0      
  4  5  1  0      
  5  6  1  0      
  1  6  1  0      
  1  7  1  1      
  4  8  1  1      
 10 11  1  0      
 11 12  2  0      
 12 13  1  0      
 13 14  2  0      
 14 15  1  0      
 10 15  2  0      
 16 17  2  0      
 16 18  1  0      
 13 16  1  0      
  9 10  1  0      
  8  9  1  0      
 19 20  1  0      
 20 21  2  0      
 21 22  1  0      
 22 23  2  0      
 23 24  1  0      
 19 24  1  0      
 25 26  1  0      
 26 27  2  0      
 27 24  1  0      
 25 19  2  0      
 28 29  1  0      
 29 30  2  0      
 30 31  1  0      
 31 32  2  0      
 32 33  1  0      
 28 33  2  0      
 34 35  1  0      
 31 34  1  0      
 36 37  1  0      
 29 36  1  0      
 32 38  1  0      
 26 28  1  0      
  7 21  1  0      
M  CHG  2  16   1  18  -1
M  END

>  <RackCode>
HYCPK72334

>  <Cat. No.>
HY-122182

>  <Product Name>
OTS193320

>  <ROW>
K

>  <COLUMN>
3

>  <CAS No.>
2093401-33-1

>  <MWt>
536.02

>  <Target>
Apoptosis; Histone Methyltransferase

>  <Saltdate>


>  <Smiles>
O=[N+](C1=CC=C(CN[C@@H]2CC[C@H](NC3=CC4=NC(C5=CC(Cl)=C(OC)C=C5OC)=CN4C=C3)CC2)C=C1)[O-]

>  <Solvent>
DMSO Solution

>  <Batch No.>
260928

>  <Quantity>
10mM  * 50uL

>  <Pathway>
Apoptosis; Epigenetics

>  <Synonyms>


>  <Formula>
C28H30ClN5O4

>  <Research_Area>
Cancer

>  <Clinical_Information>
No Development Reported

>  <SUPPLIER>
MedChemExpress

$$$$
Untitled Document
  ChemDraw07211713452D

 22 25  0  0  0  0  0  0  0  0999 V2000
    1.7879   -1.4431    0.0000 O   0  0  0  0  0  0  0  0  0  0  0  0
    1.0736   -1.0304    0.0000 C   0  0  0  0  0  0  0  0  0  0  0  0
    0.3572   -1.4431    0.0000 C   0  0  0  0  0  0  0  0  0  0  0  0
   -0.3572   -1.0304    0.0000 C   0  0  0  0  0  0  0  0  0  0  0  0
   -1.0715   -1.4431    0.0000 C   0  0  0  0  0  0  0  0  0  0  0  0
   -1.0715   -2.2702    0.0000 C   0  0  0  0  0  0  0  0  0  0  0  0
   -0.3572   -2.6768    0.0000 C   0  0  0  0  0  0  0  0  0  0  0  0
    0.3572   -2.2702    0.0000 C   0  0  0  0  0  0  0  0  0  0  0  0
   -2.5022   -2.2702    0.0000 O   0  0  0  0  0  0  0  0  0  0  0  0
   -2.5022   -1.4431    0.0000 C   0  0  0  0  0  0  0  0  0  0  0  0
   -1.7858   -1.0304    0.0000 C   0  0  0  0  0  0  0  0  0  0  0  0
   -0.3572   -0.2033    0.0000 O   0  0  0  0  0  0  0  0  0  0  0  0
    0.3572    0.2033    0.0000 C   0  0  0  0  0  0  0  0  0  0  0  0
    1.0736   -0.2033    0.0000 C   0  0  0  0  0  0  0  0  0  0  0  0
    1.7879    0.2033    0.0000 O   0  0  0  0  0  0  0  0  0  0  0  0
    2.5022   -0.2033    0.0000 C   0  0  0  0  0  0  0  0  0  0  0  0
    0.3572    1.0304    0.0000 C   0  0  0  0  0  0  0  0  0  0  0  0
   -0.3592    1.4431    0.0000 C   0  0  0  0  0  0  0  0  0  0  0  0
   -0.3592    2.2702    0.0000 C   0  0  0  0  0  0  0  0  0  0  0  0
    0.3572    2.6768    0.0000 C   0  0  0  0  0  0  0  0  0  0  0  0
    1.0694    2.2702    0.0000 C   0  0  0  0  0  0  0  0  0  0  0  0
    1.0694    1.4431    0.0000 C   0  0  0  0  0  0  0  0  0  0  0  0
  1  2  2  0      
  2  3  1  0      
  2 14  1  0      
  3  4  1  0      
  3  8  2  0      
  4  5  2  0      
  4 12  1  0      
  5  6  1  0      
  5 11  1  0      
  7  6  2  0      
  6  9  1  0      
  8  7  1  0      
  9 10  1  0      
 11 10  2  0      
 13 12  1  0      
 14 13  2  0      
 13 17  1  0      
 14 15  1  0      
 15 16  1  0      
 17 18  2  0      
 17 22  1  0      
 18 19  1  0      
 19 20  2  0      
 21 20  1  0      
 22 21  2  0      
M  END

>  <RackCode>
HYCPK72334

>  <Cat. No.>
HY-N2534

>  <Product Name>
Karanjin

>  <ROW>
L

>  <COLUMN>
3

>  <CAS No.>
521-88-0

>  <MWt>
292.29

>  <Target>
AMPK; Apoptosis; Cytochrome P450; NF-¦ÊB; Phosphatase

>  <Saltdate>


>  <Smiles>
O=C1C2=CC=C(OC=C3)C3=C2OC(C4=CC=CC=C4)=C1OC

>  <Solvent>
DMSO Solution

>  <Batch No.>
310732

>  <Quantity>
10mM  * 50uL

>  <Pathway>
Apoptosis; Epigenetics; Metabolic Enzyme/Protease; NF-¦ÊB; PI3K/Akt/mTOR

>  <Synonyms>


>  <Formula>
C18H12O4

>  <Research_Area>
Cancer; Endocrinology; Metabolic Disease; Inflammation/Immunology; Neurological Disease

>  <Clinical_Information>
No Development Reported

>  <SUPPLIER>
MedChemExpress

$$$$
Untitled Document
  ChemDraw03131717112D

 25 28  0  0  0  0  0  0  0  0999 V2000
   -2.4447    1.7721    0.0000 C   0  0  0  0  0  0  0  0  0  0  0  0
   -2.4447    0.9471    0.0000 C   0  0  0  0  0  0  0  0  0  0  0  0
   -1.7302    0.5346    0.0000 N   0  0  0  0  0  0  0  0  0  0  0  0
   -1.0158    0.9471    0.0000 C   0  0  0  0  0  0  0  0  0  0  0  0
   -1.0158    1.7721    0.0000 N   0  0  0  0  0  0  0  0  0  0  0  0
   -1.7302    2.1846    0.0000 C   0  0  0  0  0  0  0  0  0  0  0  0
   -0.2311    0.6922    0.0000 C   0  0  0  0  0  0  0  0  0  0  0  0
    0.2538    1.3596    0.0000 C   0  0  0  0  0  0  0  0  0  0  0  0
   -0.2311    2.0271    0.0000 C   0  0  0  0  0  0  0  0  0  0  0  0
    0.0238    2.8117    0.0000 C   0  0  0  0  0  0  0  0  0  0  0  0
   -0.5282    3.4248    0.0000 O   0  0  0  0  0  0  0  0  0  0  0  0
    0.8308    2.9832    0.0000 C   0  0  0  0  0  0  0  0  0  0  0  0
    0.0238   -0.0924    0.0000 C   0  0  0  0  0  0  0  0  0  0  0  0
   -0.5282   -0.7055    0.0000 C   0  0  0  0  0  0  0  0  0  0  0  0
   -0.2733   -1.4901    0.0000 C   0  0  0  0  0  0  0  0  0  0  0  0
    0.5337   -1.6617    0.0000 C   0  0  0  0  0  0  0  0  0  0  0  0
    1.0857   -1.0486    0.0000 C   0  0  0  0  0  0  0  0  0  0  0  0
    0.8308   -0.2640    0.0000 C   0  0  0  0  0  0  0  0  0  0  0  0
   -1.3352   -0.5340    0.0000 C   0  0  0  0  0  0  0  0  0  0  0  0
    1.8927   -1.2201    0.0000 C   0  0  0  0  0  0  0  0  0  0  0  0
    2.4447   -0.6070    0.0000 O   0  0  0  0  0  0  0  0  0  0  0  0
    2.1476   -2.0047    0.0000 N   0  0  0  0  0  0  0  0  0  0  0  0
    1.5956   -2.6178    0.0000 C   0  0  0  0  0  0  0  0  0  0  0  0
    0.8110   -2.8728    0.0000 C   0  0  0  0  0  0  0  0  0  0  0  0
    1.4241   -3.4248    0.0000 C   0  0  0  0  0  0  0  0  0  0  0  0
  1  2  1  0      
  2  3  2  0      
  3  4  1  0      
  4  5  1  0      
  5  6  1  0      
  6  1  2  0      
  4  7  2  0      
  7  8  1  0      
  8  9  2  0      
  9  5  1  0      
  9 10  1  0      
 10 11  2  0      
 10 12  1  0      
  7 13  1  0      
 13 14  2  0      
 14 15  1  0      
 15 16  2  0      
 16 17  1  0      
 17 18  2  0      
 18 13  1  0      
 14 19  1  0      
 17 20  1  0      
 20 21  2  0      
 20 22  1  0      
 22 23  1  0      
 23 24  1  0      
 24 25  1  0      
 25 23  1  0      
M  END

>  <RackCode>
HYCPK72334

>  <Cat. No.>
HY-100517

>  <Product Name>
TP-472

>  <ROW>
M

>  <COLUMN>
3

>  <CAS No.>
2079895-62-6

>  <MWt>
333.38

>  <Target>
Apoptosis; Epigenetic Reader Domain

>  <Saltdate>


>  <Smiles>
O=C(C)C1=CC(C2=C(C)C=CC(C(NC3CC3)=O)=C2)=C4N=CC=CN41

>  <Solvent>
DMSO Solution

>  <Batch No.>
259954

>  <Quantity>
10mM  * 50uL

>  <Pathway>
Apoptosis; Epigenetics

>  <Synonyms>


>  <Formula>
C20H19N3O2

>  <Research_Area>
Cancer

>  <Clinical_Information>
No Development Reported

>  <SUPPLIER>
MedChemExpress

$$$$
Untitled Document
  ChemDraw06232017032D

 30 32  0  0  0  0  0  0  0  0999 V2000
    2.5006    0.0000    0.0000 N   0  0  0  0  0  0  0  0  0  0  0  0
    2.5006   -0.8250    0.0000 C   0  0  0  0  0  0  0  0  0  0  0  0
    1.7862   -1.2375    0.0000 C   0  0  0  0  0  0  0  0  0  0  0  0
    1.0717   -0.8250    0.0000 N   0  0  0  0  0  0  0  0  0  0  0  0
    1.0717    0.0000    0.0000 C   0  0  0  0  0  0  0  0  0  0  0  0
    1.7862    0.4125    0.0000 C   0  0  0  0  0  0  0  0  0  0  0  0
    3.2151    0.4125    0.0000 C   0  0  0  0  0  0  0  0  0  0  0  0
    3.2151    1.2375    0.0000 O   0  0  0  0  0  0  0  0  0  0  0  0
    3.9296    0.0000    0.0000 O   0  0  0  0  0  0  0  0  0  0  0  0
    0.3572   -1.2375    0.0000 C   0  0  0  0  0  0  0  0  0  0  0  0
   -1.0717    0.4125    0.0000 C   0  0  0  0  0  0  0  0  0  0  0  0
   -0.3572    0.0000    0.0000 C   0  0  0  0  0  0  0  0  0  0  0  0
   -0.3572   -0.8250    0.0000 C   0  0  0  0  0  0  0  0  0  0  0  0
   -1.0717   -1.2375    0.0000 C   0  0  0  0  0  0  0  0  0  0  0  0
   -1.7862   -0.8250    0.0000 C   0  0  0  0  0  0  0  0  0  0  0  0
   -1.7862    0.0000    0.0000 N   0  0  0  0  0  0  0  0  0  0  0  0
   -1.0717    1.2375    0.0000 O   0  0  0  0  0  0  0  0  0  0  0  0
    0.3572    0.4125    0.0000 O   0  0  0  0  0  0  0  0  0  0  0  0
   -2.5006    0.4125    0.0000 C   0  0  0  0  0  0  0  0  0  0  0  0
   -3.2151    0.0000    0.0000 C   0  0  0  0  0  0  0  0  0  0  0  0
   -3.2151   -0.8250    0.0000 C   0  0  0  0  0  0  0  0  0  0  0  0
   -3.9296   -1.2375    0.0000 C   0  0  0  0  0  0  0  0  0  0  0  0
   -4.6441   -0.8250    0.0000 C   0  0  0  0  0  0  0  0  0  0  0  0
   -4.6441    0.0000    0.0000 C   0  0  0  0  0  0  0  0  0  0  0  0
   -3.9296    0.4125    0.0000 C   0  0  0  0  0  0  0  0  0  0  0  0
   -5.3585   -1.2375    0.0000 Cl  0  0  0  0  0  0  0  0  0  0  0  0
    4.6441    0.4125    0.0000 C   0  0  0  0  0  0  0  0  0  0  0  0
    4.6441    1.2375    0.0000 C   0  0  0  0  0  0  0  0  0  0  0  0
    5.3585    0.8250    0.0000 C   0  0  0  0  0  0  0  0  0  0  0  0
    5.3585    0.0000    0.0000 C   0  0  0  0  0  0  0  0  0  0  0  0
  1  2  1  0      
  2  3  1  0      
  3  4  1  0      
  4  5  1  0      
  5  6  1  0      
  1  6  1  0      
  7  8  2  0      
  7  9  1  0      
  1  7  1  0      
 11 12  1  0      
 12 13  2  0      
 13 14  1  0      
 14 15  2  0      
 15 16  1  0      
 11 16  1  0      
 11 17  2  0      
 12 18  1  0      
 20 21  1  0      
 21 22  2  0      
 22 23  1  0      
 23 24  2  0      
 24 25  1  0      
 20 25  2  0      
 23 26  1  0      
 19 20  1  0      
 16 19  1  0      
 10 13  1  0      
  4 10  1  0      
 27 28  1  0      
 27 29  1  0      
 27 30  1  0      
  9 27  1  0      
M  END

>  <RackCode>
HYCPK72334

>  <Cat. No.>
HY-44809

>  <Product Name>
Izilendustat

>  <ROW>
N

>  <COLUMN>
3

>  <CAS No.>
1303512-02-8

>  <MWt>
433.93

>  <Target>
HIF/HIF Prolyl-Hydroxylase

>  <Saltdate>


>  <Smiles>
O=C(N1CCN(CC(C=CN2CC3=CC=C(Cl)C=C3)=C(O)C2=O)CC1)OC(C)(C)C

>  <Solvent>
DMSO Solution

>  <Batch No.>
143862

>  <Quantity>
10mM  * 50uL

>  <Pathway>
Metabolic Enzyme/Protease

>  <Synonyms>


>  <Formula>
C22H28ClN3O4

>  <Research_Area>
Inflammation/Immunology; Cardiovascular Disease

>  <Clinical_Information>
No Development Reported

>  <SUPPLIER>
MedChemExpress

$$$$
Untitled Document
  ChemDraw09291708552D

 27 29  0  0  0  0  0  0  0  0999 V2000
    1.0258    0.2087    0.0000 N   0  0  0  0  0  0  0  0  0  0  0  0
    1.0258    1.0337    0.0000 C   0  0  0  0  0  0  0  0  0  0  0  0
    1.7431    1.4493    0.0000 O   0  0  0  0  0  0  0  0  0  0  0  0
    0.3105    1.4493    0.0000 C   0  0  0  0  0  0  0  0  0  0  0  0
   -0.4047    1.0337    0.0000 C   0  0  0  0  0  0  0  0  0  0  0  0
   -1.1200    1.4493    0.0000 C   0  0  0  0  0  0  0  0  0  0  0  0
   -1.8352    1.0337    0.0000 N   0  0  0  0  0  0  0  0  0  0  0  0
   -1.8352    0.2087    0.0000 C   0  0  0  0  0  0  0  0  0  0  0  0
   -1.1200   -0.2007    0.0000 O   0  0  0  0  0  0  0  0  0  0  0  0
   -2.5505   -0.2007    0.0000 C   0  0  0  0  0  0  0  0  0  0  0  0
   -2.8170   -0.9755    0.0000 C   0  0  0  0  0  0  0  0  0  0  0  0
   -3.6490   -0.9755    0.0000 C   0  0  0  0  0  0  0  0  0  0  0  0
   -3.8889   -0.2007    0.0000 C   0  0  0  0  0  0  0  0  0  0  0  0
   -3.2044    0.3000    0.0000 O   0  0  0  0  0  0  0  0  0  0  0  0
   -1.1200    2.2743    0.0000 C   0  0  0  0  0  0  0  0  0  0  0  0
   -0.4047    2.6837    0.0000 C   0  0  0  0  0  0  0  0  0  0  0  0
    0.3105    2.2743    0.0000 C   0  0  0  0  0  0  0  0  0  0  0  0
    1.7431   -0.2007    0.0000 C   0  0  0  0  0  0  0  0  0  0  0  0
    1.7431   -1.0337    0.0000 C   0  0  0  0  0  0  0  0  0  0  0  0
    2.4584   -1.4413    0.0000 C   0  0  0  0  0  0  0  0  0  0  0  0
    2.4584   -2.2663    0.0000 C   0  0  0  0  0  0  0  0  0  0  0  0
    1.7431   -2.6837    0.0000 O   0  0  0  0  0  0  0  0  0  0  0  0
    3.1736   -2.6837    0.0000 O   0  0  0  0  0  0  0  0  0  0  0  0
    3.1736   -1.0337    0.0000 C   0  0  0  0  0  0  0  0  0  0  0  0
    3.1736   -0.2007    0.0000 C   0  0  0  0  0  0  0  0  0  0  0  0
    2.4584    0.2087    0.0000 C   0  0  0  0  0  0  0  0  0  0  0  0
    3.8889   -1.4413    0.0000 O   0  0  0  0  0  0  0  0  0  0  0  0
  1  2  1  0      
  1 18  1  0      
  2  3  2  0      
  2  4  1  0      
  4  5  2  0      
  4 17  1  0      
  5  6  1  0      
  6  7  1  0      
  6 15  2  0      
  7  8  1  0      
  8  9  2  0      
  8 10  1  0      
 10 11  2  0      
 10 14  1  0      
 11 12  1  0      
 12 13  2  0      
 14 13  1  0      
 16 15  1  0      
 17 16  2  0      
 18 19  2  0      
 18 26  1  0      
 19 20  1  0      
 20 21  1  0      
 20 24  2  0      
 21 22  1  0      
 21 23  2  0      
 25 24  1  0      
 24 27  1  0      
 26 25  2  0      
M  END

>  <RackCode>
HYCPK72334

>  <Cat. No.>
HY-107454

>  <Product Name>
OSS_128167

>  <ROW>
O

>  <COLUMN>
3

>  <CAS No.>
887686-02-4

>  <MWt>
366.32

>  <Target>
HBV; Sirtuin

>  <Saltdate>
Free Acid

>  <Smiles>
O=C(C1=CC(NC(C2=CC=CO2)=O)=CC=C1)NC3=CC(C(O)=O)=C(O)C=C3

>  <Solvent>
DMSO Solution

>  <Batch No.>
132603

>  <Quantity>
10mM  * 50uL

>  <Pathway>
Anti-infection; Cell Cycle/DNA Damage; Epigenetics

>  <Synonyms>


>  <Formula>
C19H14N2O6

>  <Research_Area>
Cancer; Infection; Metabolic Disease; Inflammation/Immunology

>  <Clinical_Information>
No Development Reported

>  <SUPPLIER>
MedChemExpress

$$$$
Untitled Document
  ChemDraw05262016372D

 45 51  0  0  0  0  0  0  0  0999 V2000
    6.1291    2.4666    0.0000 C   0  0  0  0  0  0  0  0  0  0  0  0
    6.7124    3.0499    0.0000 O   0  0  0  0  0  0  0  0  0  0  0  0
    5.3322    2.6801    0.0000 N   0  0  0  0  0  0  0  0  0  0  0  0
    4.7488    2.0967    0.0000 C   0  0  0  0  0  0  0  0  0  0  0  0
    4.5670    1.4531    0.0000 C   0  0  0  0  0  0  0  0  0  0  0  0
    3.9238    1.2717    0.0000 C   0  0  0  0  0  0  0  0  0  0  0  0
    4.7488    1.2717    0.0000 C   0  0  0  0  0  0  0  0  0  0  0  0
    3.9238    2.0967    0.0000 C   0  0  0  0  0  0  0  0  0  0  0  0
    3.3405    0.6884    0.0000 C   0  0  0  0  0  0  0  0  0  0  0  0
    2.5436    0.9019    0.0000 N   0  0  0  0  0  0  0  0  0  0  0  0
    2.2479    1.6721    0.0000 C   0  0  0  0  0  0  0  0  0  0  0  0
    1.4241    1.6289    0.0000 C   0  0  0  0  0  0  0  0  0  0  0  0
    1.2105    0.8320    0.0000 C   0  0  0  0  0  0  0  0  0  0  0  0
    0.4754    0.4575    0.0000 C   0  0  0  0  0  0  0  0  0  0  0  0
    0.4323   -0.3664    0.0000 C   0  0  0  0  0  0  0  0  0  0  0  0
    1.1242   -0.8157    0.0000 C   0  0  0  0  0  0  0  0  0  0  0  0
    1.8593   -0.4412    0.0000 C   0  0  0  0  0  0  0  0  0  0  0  0
    1.9024    0.3827    0.0000 C   0  0  0  0  0  0  0  0  0  0  0  0
   -0.2822   -0.7789    0.0000 C   0  0  0  0  0  0  0  0  0  0  0  0
   -0.9967   -0.3664    0.0000 N   0  0  0  0  0  0  0  0  0  0  0  0
   -1.7111   -0.7789    0.0000 C   0  0  0  0  0  0  0  0  0  0  0  0
   -2.4256   -0.3664    0.0000 C   0  0  0  0  0  0  0  0  0  0  0  0
   -2.4256    0.4586    0.0000 C   0  0  0  0  0  0  0  0  0  0  0  0
   -1.7111    0.8711    0.0000 C   0  0  0  0  0  0  0  0  0  0  0  0
   -0.9967    0.4586    0.0000 C   0  0  0  0  0  0  0  0  0  0  0  0
   -3.1401    0.8711    0.0000 N   0  0  0  0  0  0  0  0  0  0  0  0
   -5.2835    0.4586    0.0000 C   0  0  0  0  0  0  0  0  0  0  0  0
   -5.2835   -0.3664    0.0000 N   0  0  0  0  0  0  0  0  0  0  0  0
   -4.5690   -0.7789    0.0000 C   0  0  0  0  0  0  0  0  0  0  0  0
   -3.8546   -0.3664    0.0000 C   0  0  0  0  0  0  0  0  0  0  0  0
   -3.8546    0.4586    0.0000 C   0  0  0  0  0  0  0  0  0  0  0  0
   -4.5690    0.8711    0.0000 N   0  0  0  0  0  0  0  0  0  0  0  0
   -3.2415   -0.9184    0.0000 C   0  0  0  0  0  0  0  0  0  0  0  0
   -3.5770   -1.6721    0.0000 C   0  0  0  0  0  0  0  0  0  0  0  0
   -4.3975   -1.5859    0.0000 S   0  0  0  0  0  0  0  0  0  0  0  0
   -3.1645   -2.3866    0.0000 C   0  0  0  0  0  0  0  0  0  0  0  0
   -2.3395   -2.3866    0.0000 C   0  0  0  0  0  0  0  0  0  0  0  0
   -1.5145   -2.3866    0.0000 F   0  0  0  0  0  0  0  0  0  0  0  0
   -1.9270   -1.6721    0.0000 F   0  0  0  0  0  0  0  0  0  0  0  0
   -1.9270   -3.1010    0.0000 F   0  0  0  0  0  0  0  0  0  0  0  0
   -5.9980    0.8711    0.0000 N   0  0  0  0  0  0  0  0  0  0  0  0
   -6.7124    0.4586    0.0000 C   0  0  0  0  0  0  0  0  0  0  0  0
   -0.2390    0.8700    0.0000 C   0  0  0  0  0  0  0  0  0  0  0  0
    2.6604    2.3866    0.0000 C   0  0  0  0  0  0  0  0  0  0  0  0
    3.0729    3.1010    0.0000 N   0  0  0  0  0  0  0  0  0  0  0  0
  1  2  2  0      
  1  3  1  0      
  4  5  1  0      
  5  6  1  0      
  6  7  1  0      
  4  7  1  0      
  4  8  1  0      
  8  6  1  0      
 10 11  1  0      
 11 12  2  0      
 12 13  1  0      
 13 14  1  0      
 14 15  2  0      
 15 16  1  0      
 16 17  2  0      
 17 18  1  0      
 10 18  1  0      
 13 18  2  0      
 20 21  1  0      
 21 22  1  0      
 22 23  1  0      
 23 24  1  0      
 24 25  1  0      
 20 25  1  0      
 27 28  1  0      
 28 29  2  0      
 29 30  1  0      
 30 31  2  0      
 31 32  1  0      
 27 32  2  0      
 33 34  2  0      
 34 35  1  0      
 35 29  1  0      
 33 30  1  0      
 36 37  1  0      
 37 38  1  0      
 37 39  1  0      
 37 40  1  0      
 34 36  1  0      
 41 42  1  0      
 27 41  1  0      
 26 31  1  0      
 23 26  1  0      
 19 20  1  0      
 15 19  1  0      
 14 43  1  0      
 44 45  3  0      
 11 44  1  0      
  9 10  1  0      
  6  9  1  0      
  3  4  1  0      
M  END

>  <RackCode>
HYCPK72334

>  <Cat. No.>
HY-136360

>  <Product Name>
MI-3454

>  <ROW>
P

>  <COLUMN>
3

>  <CAS No.>
2134169-43-8

>  <MWt>
636.73

>  <Target>
Epigenetic Reader Domain

>  <Saltdate>
Free Base

>  <Smiles>
O=CNC1(C2)CC2(CN3C(C#N)=CC4=C3C=CC(CN5CCC(NC6=C(C=C(CC(F)(F)F)S7)C7=NC(NC)=N6)CC5)=C4C)C1

>  <Solvent>
DMSO Solution

>  <Batch No.>
79764

>  <Quantity>
10mM  * 50uL

>  <Pathway>
Epigenetics

>  <Synonyms>


>  <Formula>
C32H35F3N8OS

>  <Research_Area>
Cancer

>  <Clinical_Information>
No Development Reported

>  <SUPPLIER>
MedChemExpress

$$$$
Untitled Document
  ChemDraw06291815212D

 31 32  0  0  0  0  0  0  0  0999 V2000
   -2.4982    2.2616    0.0000 C   0  0  0  0  0  0  0  0  0  0  0  0
   -2.4982    1.4365    0.0000 C   0  0  0  0  0  0  0  0  0  0  0  0
   -1.7837    1.0240    0.0000 C   0  0  0  0  0  0  0  0  0  0  0  0
   -1.0692    1.4365    0.0000 C   0  0  0  0  0  0  0  0  0  0  0  0
   -1.0692    2.2616    0.0000 C   0  0  0  0  0  0  0  0  0  0  0  0
   -1.7837    2.6741    0.0000 C   0  0  0  0  0  0  0  0  0  0  0  0
   -0.3548    1.0240    0.0000 C   0  0  0  0  0  0  0  0  0  0  0  0
    0.3597    1.4365    0.0000 N   0  0  0  0  0  0  0  0  0  0  0  0
    0.3597    2.2616    0.0000 N   0  0  0  0  0  0  0  0  0  0  0  0
   -0.3548    2.6741    0.0000 C   0  0  0  0  0  0  0  0  0  0  0  0
    0.9728    2.8136    0.0000 C   0  0  0  0  0  0  0  0  0  0  0  0
    0.6373    3.5673    0.0000 N   0  0  0  0  0  0  0  0  0  0  0  0
   -0.1832    3.4810    0.0000 N   0  0  0  0  0  0  0  0  0  0  0  0
   -0.3548    0.2019    0.0000 N   0  0  0  0  0  0  0  0  0  0  0  0
    0.3572   -0.2092    0.0000 C   0  0  0  0  0  0  0  0  0  0  0  0
    0.3572   -1.0313    0.0000 C   0  0  0  0  0  0  0  0  0  0  0  0
    1.0692    0.2019    0.0000 C   0  0  0  0  0  0  0  0  0  0  0  0
   -0.3548   -1.4424    0.0000 N   0  0  0  0  0  0  0  0  0  0  0  0
    1.0692   -1.4424    0.0000 C   0  0  0  0  0  0  0  0  0  0  0  0
   -0.3548   -2.2645    0.0000 C   0  0  0  0  0  0  0  0  0  0  0  0
   -1.0667   -1.0313    0.0000 C   0  0  0  0  0  0  0  0  0  0  0  0
    1.0692   -2.2674    0.0000 C   0  0  0  0  0  0  0  0  0  0  0  0
    1.7837   -2.6799    0.0000 C   0  0  0  0  0  0  0  0  0  0  0  0
    2.4982   -2.2674    0.0000 C   0  0  0  0  0  0  0  0  0  0  0  0
    2.4982   -1.4424    0.0000 C   0  0  0  0  0  0  0  0  0  0  0  0
    1.7837   -1.0299    0.0000 C   0  0  0  0  0  0  0  0  0  0  0  0
    1.7770    2.6427    0.0000 C   0  0  0  0  0  0  0  0  0  0  0  0
   -0.9513   -3.5368    0.0000 H   0  0  0  0  0  0  0  0  0  0  0  0
   -0.1269   -3.5673    0.0000 Cl  0  0  0  0  0  0  0  0  0  0  0  0
    1.0825   -3.5082    0.0000 H   0  0  0  0  0  0  0  0  0  0  0  0
    1.9070   -3.5387    0.0000 Cl  0  0  0  0  0  0  0  0  0  0  0  0
  1  2  1  0      
  2  3  2  0      
  3  4  1  0      
  4  5  2  0      
  5  6  1  0      
  6  1  2  0      
  4  7  1  0      
  7  8  2  0      
  8  9  1  0      
  9 10  1  0      
 10  5  1  0      
  9 11  1  0      
 11 12  2  0      
 12 13  1  0      
 13 10  2  0      
  7 14  1  0      
 14 15  1  0      
 15 16  1  0      
 15 17  1  1      
 16 18  1  0      
 16 19  1  6      
 18 20  1  0      
 18 21  1  0      
 19 22  2  0      
 22 23  1  0      
 23 24  2  0      
 24 25  1  0      
 25 26  2  0      
 26 19  1  0      
 11 27  1  0      
 28 29  1  0      
 30 31  1  0      
M  END

>  <RackCode>
HYCPK72334

>  <Cat. No.>
HY-101125A

>  <Product Name>
L-Moses (dihydrochloride)

>  <ROW>
A

>  <COLUMN>
4

>  <CAS No.>


>  <MWt>
433.38

>  <Target>
Epigenetic Reader Domain

>  <Saltdate>
Hydrochloride

>  <Smiles>
C[C@@H]([C@H](C1=CC=CC=C1)N(C)C)NC(C2=C3C=CC=C2)=NN4C3=NN=C4C.[H]Cl.[H]Cl

>  <Solvent>
DMSO Solution

>  <Batch No.>
343607

>  <Quantity>
10mM  * 50uL

>  <Pathway>
Epigenetics

>  <Synonyms>
L-45 (dihydrochloride)

>  <Formula>
C21H26Cl2N6

>  <Research_Area>
Cancer

>  <Clinical_Information>
No Development Reported

>  <SUPPLIER>
MedChemExpress

$$$$
Untitled Document
  ChemDraw04082214052D

 23 25  0  0  0  0  0  0  0  0999 V2000
   -0.9972    0.8552    0.0000 C   0  0  0  0  0  0  0  0  0  0  0  0
   -0.1903    0.6836    0.0000 C   0  0  0  0  0  0  0  0  0  0  0  0
    0.0647   -0.1010    0.0000 C   0  0  0  0  0  0  0  0  0  0  0  0
    0.8616   -0.3145    0.0000 N   0  0  0  0  0  0  0  0  0  0  0  0
    1.0751   -1.1114    0.0000 C   0  0  0  0  0  0  0  0  0  0  0  0
    1.8720   -1.3249    0.0000 C   0  0  0  0  0  0  0  0  0  0  0  0
    2.0855   -2.1218    0.0000 C   0  0  0  0  0  0  0  0  0  0  0  0
    2.8824   -2.3353    0.0000 C   0  0  0  0  0  0  0  0  0  0  0  0
    3.4657   -1.7520    0.0000 N   0  0  0  0  0  0  0  0  0  0  0  0
    3.0959   -3.1322    0.0000 O   0  0  0  0  0  0  0  0  0  0  0  0
    1.5021   -2.7052    0.0000 C   0  0  0  0  0  0  0  0  0  0  0  0
    0.7052   -2.4916    0.0000 C   0  0  0  0  0  0  0  0  0  0  0  0
    0.4917   -1.6948    0.0000 C   0  0  0  0  0  0  0  0  0  0  0  0
   -0.5187   -0.6843    0.0000 O   0  0  0  0  0  0  0  0  0  0  0  0
   -1.2522    1.6398    0.0000 C   0  0  0  0  0  0  0  0  0  0  0  0
   -2.0368    1.8947    0.0000 C   0  0  0  0  0  0  0  0  0  0  0  0
   -2.0368    2.7197    0.0000 C   0  0  0  0  0  0  0  0  0  0  0  0
   -1.2522    2.9747    0.0000 N   0  0  0  0  0  0  0  0  0  0  0  0
   -0.7673    2.3072    0.0000 C   0  0  0  0  0  0  0  0  0  0  0  0
   -2.7513    3.1322    0.0000 C   0  0  0  0  0  0  0  0  0  0  0  0
   -3.4657    2.7197    0.0000 C   0  0  0  0  0  0  0  0  0  0  0  0
   -3.4657    1.8947    0.0000 C   0  0  0  0  0  0  0  0  0  0  0  0
   -2.7513    1.4822    0.0000 C   0  0  0  0  0  0  0  0  0  0  0  0
  1  2  2  0      
  2  3  1  0      
  3  4  1  0      
  4  5  1  0      
  5  6  2  0      
  6  7  1  0      
  7  8  1  0      
  8  9  1  0      
  8 10  2  0      
  7 11  2  0      
 11 12  1  0      
 12 13  2  0      
  5 13  1  0      
  3 14  2  0      
  1 15  1  0      
 15 16  1  0      
 16 17  1  0      
 17 18  1  0      
 18 19  1  0      
 15 19  2  0      
 17 20  2  0      
 20 21  1  0      
 21 22  2  0      
 22 23  1  0      
 16 23  2  0      
M  END

>  <RackCode>
HYCPK72334

>  <Cat. No.>
HY-12310

>  <Product Name>
RSC133

>  <ROW>
B

>  <COLUMN>
4

>  <CAS No.>
1418131-46-0

>  <MWt>
305.33

>  <Target>
DNA Methyltransferase; HDAC

>  <Saltdate>


>  <Smiles>
NC(C1=CC=CC(NC(/C=C/C2=CNC3=CC=CC=C23)=O)=C1)=O

>  <Solvent>
DMSO Solution

>  <Batch No.>
253914

>  <Quantity>
10mM  * 50uL

>  <Pathway>
Cell Cycle/DNA Damage; Epigenetics

>  <Synonyms>


>  <Formula>
C18H15N3O2

>  <Research_Area>
Others

>  <Clinical_Information>
No Development Reported

>  <SUPPLIER>
MedChemExpress

$$$$
Untitled Document
  ChemDraw05041815132D

 28 31  0  0  0  0  0  0  0  0999 V2000
   -0.9155   -1.6461    0.0000 O   0  0  0  0  0  0  0  0  0  0  0  0
   -0.4302   -0.9787    0.0000 C   0  0  0  0  0  0  0  0  0  0  0  0
   -0.6699   -0.2069    0.0000 C   0  0  0  0  0  0  0  0  0  0  0  0
   -1.3844    0.2060    0.0000 N   0  0  0  0  0  0  0  0  0  0  0  0
   -2.8133    0.2060    0.0000 C   0  0  0  0  0  0  0  0  0  0  0  0
   -2.8133    1.0310    0.0000 C   0  0  0  0  0  0  0  0  0  0  0  0
   -2.0967    1.4435    0.0000 C   0  0  0  0  0  0  0  0  0  0  0  0
   -1.3844    1.0310    0.0000 C   0  0  0  0  0  0  0  0  0  0  0  0
   -3.5277    1.4435    0.0000 C   0  0  0  0  0  0  0  0  0  0  0  0
   -3.5277    2.2685    0.0000 N   0  0  0  0  0  0  0  0  0  0  0  0
   -4.2422    1.0310    0.0000 N   0  0  0  0  0  0  0  0  0  0  0  0
   -4.2422    0.2060    0.0000 C   0  0  0  0  0  0  0  0  0  0  0  0
   -3.5277   -0.2069    0.0000 N   0  0  0  0  0  0  0  0  0  0  0  0
    0.0140    0.2989    0.0000 O   0  0  0  0  0  0  0  0  0  0  0  0
    0.6678   -0.2069    0.0000 C   0  0  0  0  0  0  0  0  0  0  0  0
    0.4018   -0.9787    0.0000 C   0  0  0  0  0  0  0  0  0  0  0  0
    0.8741   -1.6543    0.0000 O   0  0  0  0  0  0  0  0  0  0  0  0
    1.3815    0.2060    0.0000 C   0  0  0  0  0  0  0  0  0  0  0  0
    1.3815    1.0310    0.0000 O   0  0  0  0  0  0  0  0  0  0  0  0
    2.0951   -0.2069    0.0000 C   0  0  0  0  0  0  0  0  0  0  0  0
    2.0951   -1.0319    0.0000 C   0  0  0  0  0  0  0  0  0  0  0  0
    2.8128   -1.4435    0.0000 C   0  0  0  0  0  0  0  0  0  0  0  0
    2.8128   -2.2685    0.0000 F   0  0  0  0  0  0  0  0  0  0  0  0
    3.5265   -1.0319    0.0000 C   0  0  0  0  0  0  0  0  0  0  0  0
    3.5265   -0.2069    0.0000 C   0  0  0  0  0  0  0  0  0  0  0  0
    2.8128    0.2060    0.0000 C   0  0  0  0  0  0  0  0  0  0  0  0
    4.2422   -1.4435    0.0000 Cl  0  0  0  0  0  0  0  0  0  0  0  0
    1.2990   -0.7371    0.0000 H   0  0  0  0  0  0  0  0  0  0  0  0
  2  1  1  1      
  2  3  1  0      
  2 16  1  0      
  3  4  1  6      
  3 14  1  0      
  4  5  1  0      
  4  8  1  0      
  5  6  1  0      
  5 13  2  0      
  6  7  1  0      
  6  9  2  0      
  8  7  2  0      
  9 10  1  0      
  9 11  1  0      
 12 11  2  0      
 13 12  1  0      
 14 15  1  0      
 16 15  1  0      
 15 18  1  0      
 15 28  1  1      
 16 17  1  1      
 18 19  1  6      
 18 20  1  0      
 20 21  2  0      
 20 26  1  0      
 21 22  1  0      
 22 23  1  0      
 22 24  2  0      
 25 24  1  0      
 24 27  1  0      
 26 25  2  0      
M  END

>  <RackCode>
HYCPK72334

>  <Cat. No.>
HY-112165

>  <Product Name>
PRMT5-IN-2

>  <ROW>
C

>  <COLUMN>
4

>  <CAS No.>
1989620-04-3

>  <MWt>
394.78

>  <Target>
Histone Methyltransferase

>  <Saltdate>
Free Base

>  <Smiles>
O[C@H]1[C@@H](O[C@@]([C@@H](C2=CC(F)=C(Cl)C=C2)O)([H])[C@H]1O)N3C4=NC=NC(N)=C4C=C3

>  <Solvent>
DMSO Solution

>  <Batch No.>
343161

>  <Quantity>
10mM  * 50uL

>  <Pathway>
Epigenetics

>  <Synonyms>


>  <Formula>
C17H16ClFN4O4

>  <Research_Area>
Cancer

>  <Clinical_Information>
No Development Reported

>  <SUPPLIER>
MedChemExpress

$$$$
Untitled Document
  ChemDraw01091816112D

 24 27  0  0  0  0  0  0  0  0999 V2000
   -3.2198   -0.3082    0.0000 C   0  0  0  0  0  0  0  0  0  0  0  0
   -3.2198   -1.1332    0.0000 N   0  0  0  0  0  0  0  0  0  0  0  0
   -2.5054   -1.5457    0.0000 C   0  0  0  0  0  0  0  0  0  0  0  0
   -1.7909   -1.1332    0.0000 C   0  0  0  0  0  0  0  0  0  0  0  0
   -1.7909   -0.3082    0.0000 C   0  0  0  0  0  0  0  0  0  0  0  0
   -2.5054    0.1043    0.0000 C   0  0  0  0  0  0  0  0  0  0  0  0
   -1.0063   -1.3881    0.0000 S   0  0  0  0  0  0  0  0  0  0  0  0
   -0.5213   -0.7207    0.0000 C   0  0  0  0  0  0  0  0  0  0  0  0
   -1.0063   -0.0532    0.0000 C   0  0  0  0  0  0  0  0  0  0  0  0
    0.2991   -0.6344    0.0000 N   0  0  0  0  0  0  0  0  0  0  0  0
    0.6347    0.1192    0.0000 C   0  0  0  0  0  0  0  0  0  0  0  0
    0.1498    0.7867    0.0000 N   0  0  0  0  0  0  0  0  0  0  0  0
   -0.6707    0.7004    0.0000 C   0  0  0  0  0  0  0  0  0  0  0  0
    1.4597    0.1192    0.0000 C   0  0  0  0  0  0  0  0  0  0  0  0
    1.8722   -0.5952    0.0000 C   0  0  0  0  0  0  0  0  0  0  0  0
    2.6972   -0.5952    0.0000 C   0  0  0  0  0  0  0  0  0  0  0  0
    3.1097    0.1192    0.0000 C   0  0  0  0  0  0  0  0  0  0  0  0
    2.6972    0.8337    0.0000 C   0  0  0  0  0  0  0  0  0  0  0  0
    1.8722    0.8337    0.0000 C   0  0  0  0  0  0  0  0  0  0  0  0
   -3.9318   -1.5443    0.0000 C   0  0  0  0  0  0  0  0  0  0  0  0
   -1.1540    1.3656    0.0000 O   0  0  0  0  0  0  0  0  0  0  0  0
    3.1083    1.5457    0.0000 C   0  0  0  0  0  0  0  0  0  0  0  0
    3.9318    0.1192    0.0000 O   0  0  0  0  0  0  0  0  0  0  0  0
    3.1083   -1.3072    0.0000 C   0  0  0  0  0  0  0  0  0  0  0  0
  1  2  1  0      
  2  3  1  0      
  3  4  1  0      
  4  5  2  0      
  5  6  1  0      
  6  1  1  0      
  4  7  1  0      
  7  8  1  0      
  8  9  2  0      
  9  5  1  0      
  8 10  1  0      
 10 11  2  0      
 11 12  1  0      
 12 13  1  0      
 13  9  1  0      
 11 14  1  0      
 14 15  2  0      
 15 16  1  0      
 16 17  2  0      
 17 18  1  0      
 18 19  2  0      
 19 14  1  0      
  2 20  1  0      
 13 21  2  0      
 18 22  1  0      
 17 23  1  0      
 16 24  1  0      
M  END

>  <RackCode>
HYCPK72334

>  <Cat. No.>
HY-111102

>  <Product Name>
FL-411

>  <ROW>
D

>  <COLUMN>
4

>  <CAS No.>
2118944-88-8

>  <MWt>
341.43

>  <Target>
Epigenetic Reader Domain

>  <Saltdate>
Free Base

>  <Smiles>
CN1CCC2=C(SC(N=C(C3=CC(C)=C(O)C(C)=C3)N4)=C2C4=O)C1

>  <Solvent>
DMSO Solution

>  <Batch No.>
30029

>  <Quantity>
10mM  * 50uL

>  <Pathway>
Epigenetics

>  <Synonyms>
BRD4-IN-1

>  <Formula>
C18H19N3O2S

>  <Research_Area>
Cancer

>  <Clinical_Information>
No Development Reported

>  <SUPPLIER>
MedChemExpress

$$$$
Untitled Document
  ChemDraw04092017092D

 12 13  0  0  0  0  0  0  0  0999 V2000
   -0.7145   -0.8250    0.0000 C   0  0  0  0  0  0  0  0  0  0  0  0
   -1.4289   -0.4125    0.0000 N   0  0  0  0  0  0  0  0  0  0  0  0
   -1.4289    0.4125    0.0000 C   0  0  0  0  0  0  0  0  0  0  0  0
   -0.7145    0.8250    0.0000 C   0  0  0  0  0  0  0  0  0  0  0  0
   -0.0000    0.4125    0.0000 C   0  0  0  0  0  0  0  0  0  0  0  0
    0.7145    0.8250    0.0000 C   0  0  0  0  0  0  0  0  0  0  0  0
    1.4289    0.4125    0.0000 C   0  0  0  0  0  0  0  0  0  0  0  0
    1.4289   -0.4125    0.0000 C   0  0  0  0  0  0  0  0  0  0  0  0
    0.7145   -0.8250    0.0000 C   0  0  0  0  0  0  0  0  0  0  0  0
   -0.0000   -0.4125    0.0000 C   0  0  0  0  0  0  0  0  0  0  0  0
   -0.7145   -1.6500    0.0000 O   0  0  0  0  0  0  0  0  0  0  0  0
    0.7145    1.6500    0.0000 O   0  0  0  0  0  0  0  0  0  0  0  0
  1  2  1  0      
  2  3  1  0      
  3  4  2  0      
  4  5  1  0      
  5  6  1  0      
  6  7  2  0      
  7  8  1  0      
  8  9  2  0      
  9 10  1  0      
  1 10  1  0      
  5 10  2  0      
  1 11  2  0      
  6 12  1  0      
M  END

>  <RackCode>
HYCPK72334

>  <Cat. No.>
HY-W015422

>  <Product Name>
1,5-Isoquinolinediol

>  <ROW>
E

>  <COLUMN>
4

>  <CAS No.>
5154-02-9

>  <MWt>
161.16

>  <Target>
PARP

>  <Saltdate>
Free Base

>  <Smiles>
O=C1NC=CC2=C1C=CC=C2O

>  <Solvent>
DMSO Solution

>  <Batch No.>
247578

>  <Quantity>
10mM  * 50uL

>  <Pathway>
Cell Cycle/DNA Damage; Epigenetics

>  <Synonyms>


>  <Formula>
C9H7NO2

>  <Research_Area>
Metabolic Disease

>  <Clinical_Information>
No Development Reported

>  <SUPPLIER>
MedChemExpress

$$$$
Untitled Document
  ChemDraw01152110072D

 28 29  0  0  0  0  0  0  0  0999 V2000
   -1.4289    0.7520    0.0000 C   0  0  0  0  0  0  0  0  0  0  0  0
   -0.7145    0.3395    0.0000 C   0  0  0  0  0  0  0  0  0  0  0  0
   -0.7145   -0.4855    0.0000 C   0  0  0  0  0  0  0  0  0  0  0  0
   -1.4289   -0.8980    0.0000 C   0  0  0  0  0  0  0  0  0  0  0  0
   -2.1434   -0.4855    0.0000 C   0  0  0  0  0  0  0  0  0  0  0  0
   -2.8579   -0.8980    0.0000 C   0  0  0  0  0  0  0  0  0  0  0  0
   -3.5724   -0.4855    0.0000 C   0  0  0  0  0  0  0  0  0  0  0  0
   -3.5724    0.3395    0.0000 C   0  0  0  0  0  0  0  0  0  0  0  0
   -2.8579    0.7520    0.0000 C   0  0  0  0  0  0  0  0  0  0  0  0
   -2.1434    0.3395    0.0000 C   0  0  0  0  0  0  0  0  0  0  0  0
    0.0000    0.7520    0.0000 C   0  0  0  0  0  0  0  0  0  0  0  0
    0.0000    1.5770    0.0000 O   0  0  0  0  0  0  0  0  0  0  0  0
    0.7145    0.3395    0.0000 N   0  0  0  0  0  0  0  0  0  0  0  0
    1.4289    0.7520    0.0000 C   0  0  0  0  0  0  0  0  0  0  0  0
    1.4289    1.5770    0.0000 C   0  0  0  0  0  0  0  0  0  0  0  0
    2.1434    1.9895    0.0000 C   0  0  0  0  0  0  0  0  0  0  0  0
    2.8579    1.5770    0.0000 C   0  0  0  0  0  0  0  0  0  0  0  0
    2.8579    0.7520    0.0000 C   0  0  0  0  0  0  0  0  0  0  0  0
    2.1434    0.3395    0.0000 C   0  0  0  0  0  0  0  0  0  0  0  0
    0.7145    1.9895    0.0000 O   0  0  0  0  0  0  0  0  0  0  0  0
    3.5724    1.9895    0.0000 Cl  0  0  0  0  0  0  0  0  0  0  0  0
    0.0000   -0.8980    0.0000 O   0  0  0  0  0  0  0  0  0  0  0  0
    0.7145   -0.4855    0.0000 C   0  0  0  0  0  0  0  0  0  0  0  0
    1.4289   -0.8980    0.0000 C   0  0  0  0  0  0  0  0  0  0  0  0
    2.1434   -0.4855    0.0000 C   0  0  0  0  0  0  0  0  0  0  0  0
    2.8579   -0.8980    0.0000 N   0  0  0  0  0  0  0  0  0  0  0  0
   -0.4151   -1.9895    0.0000 H   0  0  0  0  0  0  0  0  0  0  0  0
    0.4099   -1.9895    0.0000 Cl  0  0  0  0  0  0  0  0  0  0  0  0
  1  2  1  0      
  2  3  2  0      
  3  4  1  0      
  4  5  2  0      
  5  6  1  0      
  6  7  2  0      
  7  8  1  0      
  8  9  2  0      
  9 10  1  0      
  1 10  2  0      
  5 10  1  0      
 11 12  2  0      
 11 13  1  0      
  2 11  1  0      
 14 15  1  0      
 15 16  2  0      
 16 17  1  0      
 17 18  2  0      
 18 19  1  0      
 14 19  2  0      
 15 20  1  0      
 17 21  1  0      
 13 14  1  0      
 23 24  1  0      
 24 25  1  0      
 22 23  1  0      
 25 26  1  0      
  3 22  1  0      
 27 28  1  0      
M  END

>  <RackCode>
HYCPK72334

>  <Cat. No.>
HY-134598A

>  <Product Name>
653-47 (hydrochloride)

>  <ROW>
F

>  <COLUMN>
4

>  <CAS No.>
1224567-46-7

>  <MWt>
407.29

>  <Target>
Epigenetic Reader Domain

>  <Saltdate>
Hydrochloride

>  <Smiles>
O=C(C1=C(OCCCN)C=C2C=CC=CC2=C1)NC3=CC=C(Cl)C=C3O.[H]Cl

>  <Solvent>
DMSO Solution

>  <Batch No.>
97442

>  <Quantity>
10mM  * 50uL

>  <Pathway>
Epigenetics

>  <Synonyms>


>  <Formula>
C20H20Cl2N2O3

>  <Research_Area>
Cancer

>  <Clinical_Information>
No Development Reported

>  <SUPPLIER>
MedChemExpress

$$$$
Untitled Document
  ChemDraw11061908442D

 34 37  0  0  0  0  0  0  0  0999 V2000
   -5.5924    1.5273    0.0000 C   0  0  0  0  0  0  0  0  0  0  0  0
   -4.8779    1.1148    0.0000 C   0  0  0  0  0  0  0  0  0  0  0  0
   -6.3069    1.1148    0.0000 O   0  0  0  0  0  0  0  0  0  0  0  0
   -4.1634    1.5273    0.0000 N   0  0  0  0  0  0  0  0  0  0  0  0
   -4.1634    2.3523    0.0000 C   0  0  0  0  0  0  0  0  0  0  0  0
   -2.0200    0.2898    0.0000 N   0  0  0  0  0  0  0  0  0  0  0  0
   -2.7345   -0.1227    0.0000 C   0  0  0  0  0  0  0  0  0  0  0  0
   -3.4490    0.2898    0.0000 C   0  0  0  0  0  0  0  0  0  0  0  0
   -3.4490    1.1148    0.0000 C   0  0  0  0  0  0  0  0  0  0  0  0
   -2.7345    1.5273    0.0000 C   0  0  0  0  0  0  0  0  0  0  0  0
   -2.0200    1.1148    0.0000 C   0  0  0  0  0  0  0  0  0  0  0  0
   -1.3056   -0.1227    0.0000 C   0  0  0  0  0  0  0  0  0  0  0  0
   -1.3056   -0.9477    0.0000 C   0  0  0  0  0  0  0  0  0  0  0  0
   -0.5911   -1.3602    0.0000 C   0  0  0  0  0  0  0  0  0  0  0  0
    0.1234   -0.9477    0.0000 C   0  0  0  0  0  0  0  0  0  0  0  0
    0.1234   -0.1227    0.0000 C   0  0  0  0  0  0  0  0  0  0  0  0
   -0.5911    0.2898    0.0000 C   0  0  0  0  0  0  0  0  0  0  0  0
    0.8379   -1.3602    0.0000 N   0  0  0  0  0  0  0  0  0  0  0  0
    1.5523   -0.9477    0.0000 C   0  0  0  0  0  0  0  0  0  0  0  0
    2.2668   -1.3602    0.0000 N   0  0  0  0  0  0  0  0  0  0  0  0
    2.9813   -0.9477    0.0000 C   0  0  0  0  0  0  0  0  0  0  0  0
    2.9813   -0.1227    0.0000 C   0  0  0  0  0  0  0  0  0  0  0  0
    2.2668    0.2898    0.0000 C   0  0  0  0  0  0  0  0  0  0  0  0
    1.5523   -0.1227    0.0000 N   0  0  0  0  0  0  0  0  0  0  0  0
    3.6957    0.2898    0.0000 C   0  0  0  0  0  0  0  0  0  0  0  0
    5.0014   -1.6378    0.0000 N   0  0  0  0  0  0  0  0  0  0  0  0
    4.5889   -2.3523    0.0000 N   0  0  0  0  0  0  0  0  0  0  0  0
    3.7820   -2.1807    0.0000 C   0  0  0  0  0  0  0  0  0  0  0  0
    3.6957   -1.3602    0.0000 C   0  0  0  0  0  0  0  0  0  0  0  0
    4.4494   -1.0247    0.0000 C   0  0  0  0  0  0  0  0  0  0  0  0
    5.8219   -1.5515    0.0000 C   0  0  0  0  0  0  0  0  0  0  0  0
    6.1575   -0.7979    0.0000 C   0  0  0  0  0  0  0  0  0  0  0  0
    6.3069   -2.2190    0.0000 C   0  0  0  0  0  0  0  0  0  0  0  0
   -2.0200   -1.3602    0.0000 F   0  0  0  0  0  0  0  0  0  0  0  0
  1  2  1  0      
  1  3  1  0      
  4  5  1  0      
  6  7  1  0      
  7  8  1  0      
  8  9  1  0      
  9 10  1  0      
 10 11  1  0      
  6 11  1  0      
 12 13  1  0      
 13 14  2  0      
 14 15  1  0      
 15 16  2  0      
 16 17  1  0      
 12 17  2  0      
 19 20  1  0      
 20 21  2  0      
 21 22  1  0      
 22 23  2  0      
 23 24  1  0      
 19 24  2  0      
 22 25  1  0      
 26 27  1  0      
 27 28  2  0      
 28 29  1  0      
 29 30  2  0      
 26 30  1  0      
 31 32  1  0      
 31 33  1  0      
 26 31  1  0      
 21 29  1  0      
 18 19  1  0      
 15 18  1  0      
 13 34  1  0      
  6 12  1  0      
  4  9  1  0      
  2  4  1  0      
M  END

>  <RackCode>
HYCPK72334

>  <Cat. No.>
HY-130247

>  <Product Name>
Flonoltinib

>  <ROW>
G

>  <COLUMN>
4

>  <CAS No.>
2387765-27-5

>  <MWt>
467.58

>  <Target>
Apoptosis; FLT3; JAK

>  <Saltdate>
Free Base

>  <Smiles>
OCCN(C1CCN(C2=CC=C(NC3=NC=C(C)C(C4=CN(C(C)C)N=C4)=N3)C=C2F)CC1)C

>  <Solvent>
DMSO Solution

>  <Batch No.>
262503

>  <Quantity>
10mM  * 50uL

>  <Pathway>
Apoptosis; Epigenetics; JAK/STAT Signaling; Protein Tyrosine Kinase/RTK; Stem Cell/Wnt

>  <Synonyms>
JAK2/FLT3-IN-1

>  <Formula>
C25H34FN7O

>  <Research_Area>
Cancer

>  <Clinical_Information>
No Development Reported

>  <SUPPLIER>
MedChemExpress

$$$$
Untitled Document
  ChemDraw05101711192D

 29 32  0  0  0  0  0  0  0  0999 V2000
    0.3572   -0.2062    0.0000 C   0  0  0  0  0  0  0  0  0  0  0  0
   -0.3572   -0.6187    0.0000 C   0  0  0  0  0  0  0  0  0  0  0  0
   -1.0717   -0.2062    0.0000 C   0  0  0  0  0  0  0  0  0  0  0  0
   -1.7862   -0.6187    0.0000 C   0  0  0  0  0  0  0  0  0  0  0  0
   -1.7862   -1.4437    0.0000 C   0  0  0  0  0  0  0  0  0  0  0  0
   -1.0717   -1.8563    0.0000 C   0  0  0  0  0  0  0  0  0  0  0  0
   -0.3572   -1.4437    0.0000 C   0  0  0  0  0  0  0  0  0  0  0  0
    0.3572    0.6188    0.0000 O   0  0  0  0  0  0  0  0  0  0  0  0
    1.0717   -0.6187    0.0000 N   0  0  0  0  0  0  0  0  0  0  0  0
    1.7862   -0.2062    0.0000 C   0  0  0  0  0  0  0  0  0  0  0  0
    2.5006   -0.6187    0.0000 C   0  0  0  0  0  0  0  0  0  0  0  0
    3.2151   -0.2062    0.0000 C   0  0  0  0  0  0  0  0  0  0  0  0
    3.9296   -0.6187    0.0000 C   0  0  0  0  0  0  0  0  0  0  0  0
    4.6441   -0.2062    0.0000 C   0  0  0  0  0  0  0  0  0  0  0  0
    5.3585   -0.6187    0.0000 C   0  0  0  0  0  0  0  0  0  0  0  0
    5.3585   -1.4437    0.0000 C   0  0  0  0  0  0  0  0  0  0  0  0
    4.6441   -1.8563    0.0000 C   0  0  0  0  0  0  0  0  0  0  0  0
    3.9296   -1.4437    0.0000 C   0  0  0  0  0  0  0  0  0  0  0  0
   -4.6441    1.0313    0.0000 N   0  0  0  0  0  0  0  0  0  0  0  0
   -5.3585    0.6188    0.0000 C   0  0  0  0  0  0  0  0  0  0  0  0
   -5.3585   -0.2062    0.0000 C   0  0  0  0  0  0  0  0  0  0  0  0
   -4.6441   -0.6187    0.0000 C   0  0  0  0  0  0  0  0  0  0  0  0
   -3.9296   -0.2062    0.0000 C   0  0  0  0  0  0  0  0  0  0  0  0
   -3.2151   -0.6187    0.0000 C   0  0  0  0  0  0  0  0  0  0  0  0
   -2.5006   -0.2062    0.0000 C   0  0  0  0  0  0  0  0  0  0  0  0
   -2.5006    0.6188    0.0000 C   0  0  0  0  0  0  0  0  0  0  0  0
   -3.2151    1.0313    0.0000 C   0  0  0  0  0  0  0  0  0  0  0  0
   -3.9296    0.6188    0.0000 C   0  0  0  0  0  0  0  0  0  0  0  0
   -3.2151    1.8563    0.0000 O   0  0  0  0  0  0  0  0  0  0  0  0
  1  2  1  0      
  2  3  1  0      
  3  4  2  0      
  4  5  1  0      
  5  6  2  0      
  6  7  1  0      
  2  7  2  0      
  1  8  2  0      
  1  9  1  0      
 10 11  1  0      
 11 12  1  0      
 13 14  1  0      
 14 15  2  0      
 15 16  1  0      
 16 17  2  0      
 17 18  1  0      
 13 18  2  0      
 12 13  1  0      
  9 10  1  0      
 19 20  2  0      
 20 21  1  0      
 21 22  2  0      
 22 23  1  0      
 23 24  2  0      
 24 25  1  0      
 25 26  2  0      
 26 27  1  0      
 27 28  2  0      
 19 28  1  0      
 23 28  1  0      
 27 29  1  0      
  4 25  1  0      
M  END

>  <RackCode>
HYCPK72334

>  <Cat. No.>
HY-101799

>  <Product Name>
NCGC00244536

>  <ROW>
H

>  <COLUMN>
4

>  <CAS No.>
2003260-55-5

>  <MWt>
382.45

>  <Target>
Histone Demethylase

>  <Saltdate>
Free Base

>  <Smiles>
O=C(NCCCC1=CC=CC=C1)C2=CC=CC(C3=CC(O)=C4N=CC=CC4=C3)=C2

>  <Solvent>
DMSO Solution

>  <Batch No.>
24874

>  <Quantity>
10mM  * 50uL

>  <Pathway>
Epigenetics

>  <Synonyms>
KDM4B Inhibitor B3

>  <Formula>
C25H22N2O2

>  <Research_Area>
Cancer

>  <Clinical_Information>
No Development Reported

>  <SUPPLIER>
MedChemExpress

$$$$
Untitled Document
  ChemDraw03041911152D

 22 24  0  0  0  0  0  0  0  0999 V2000
    2.1434    1.6500    0.0000 C   0  0  0  0  0  0  0  0  0  0  0  0
    1.4289    1.2375    0.0000 C   0  0  0  0  0  0  0  0  0  0  0  0
    1.4289    0.4125    0.0000 C   0  0  0  0  0  0  0  0  0  0  0  0
    0.7145    0.0000    0.0000 C   0  0  0  0  0  0  0  0  0  0  0  0
    0.0000    0.4125    0.0000 C   0  0  0  0  0  0  0  0  0  0  0  0
    0.0000    1.2375    0.0000 C   0  0  0  0  0  0  0  0  0  0  0  0
    0.7145    1.6500    0.0000 C   0  0  0  0  0  0  0  0  0  0  0  0
    2.1434    2.4750    0.0000 O   0  0  0  0  0  0  0  0  0  0  0  0
    2.8579    1.2375    0.0000 N   0  0  0  0  0  0  0  0  0  0  0  0
    3.5724    1.6500    0.0000 O   0  0  0  0  0  0  0  0  0  0  0  0
   -0.7145    0.0000    0.0000 C   0  0  0  0  0  0  0  0  0  0  0  0
   -0.7145   -0.8250    0.0000 N   0  0  0  0  0  0  0  0  0  0  0  0
    0.0000   -1.2375    0.0000 C   0  0  0  0  0  0  0  0  0  0  0  0
    0.0000   -2.0625    0.0000 C   0  0  0  0  0  0  0  0  0  0  0  0
   -0.7145   -2.4750    0.0000 C   0  0  0  0  0  0  0  0  0  0  0  0
   -1.4289   -2.0625    0.0000 C   0  0  0  0  0  0  0  0  0  0  0  0
   -2.1434   -2.4750    0.0000 C   0  0  0  0  0  0  0  0  0  0  0  0
   -2.8579   -2.0625    0.0000 C   0  0  0  0  0  0  0  0  0  0  0  0
   -2.8579   -1.2375    0.0000 C   0  0  0  0  0  0  0  0  0  0  0  0
   -2.1434   -0.8250    0.0000 C   0  0  0  0  0  0  0  0  0  0  0  0
   -1.4289   -1.2375    0.0000 C   0  0  0  0  0  0  0  0  0  0  0  0
   -3.5724   -2.4750    0.0000 Cl  0  0  0  0  0  0  0  0  0  0  0  0
  1  2  1  0      
  2  3  1  0      
  3  4  2  0      
  4  5  1  0      
  5  6  2  0      
  6  7  1  0      
  2  7  2  0      
  1  8  2  0      
  1  9  1  0      
  9 10  1  0      
 12 13  1  0      
 13 14  1  0      
 14 15  1  0      
 15 16  1  0      
 16 17  1  0      
 17 18  2  0      
 18 19  1  0      
 19 20  2  0      
 20 21  1  0      
 12 21  1  0      
 16 21  2  0      
 18 22  1  0      
 11 12  1  0      
  5 11  1  0      
M  END

>  <RackCode>
HYCPK72334

>  <Cat. No.>
HY-115475

>  <Product Name>
SW-100

>  <ROW>
I

>  <COLUMN>
4

>  <CAS No.>
2126744-35-0

>  <MWt>
316.78

>  <Target>
HDAC

>  <Saltdate>
Free Base

>  <Smiles>
O=C(NO)C1=CC=C(CN2CCCC3=C2C=CC(Cl)=C3)C=C1

>  <Solvent>
DMSO Solution

>  <Batch No.>
41831

>  <Quantity>
10mM  * 50uL

>  <Pathway>
Cell Cycle/DNA Damage; Epigenetics

>  <Synonyms>


>  <Formula>
C17H17ClN2O2

>  <Research_Area>
Neurological Disease

>  <Clinical_Information>
No Development Reported

>  <SUPPLIER>
MedChemExpress

$$$$
Untitled Document
  ChemDraw09181710552D

 28 30  0  0  0  0  0  0  0  0999 V2000
    0.5298   -0.0732    0.0000 C   0  0  0  0  0  0  0  0  0  0  0  0
   -0.1847   -0.4857    0.0000 C   0  0  0  0  0  0  0  0  0  0  0  0
   -0.8992   -0.0732    0.0000 C   0  0  0  0  0  0  0  0  0  0  0  0
   -1.6136   -0.4857    0.0000 C   0  0  0  0  0  0  0  0  0  0  0  0
   -1.6136   -1.3107    0.0000 C   0  0  0  0  0  0  0  0  0  0  0  0
   -0.8992   -1.7231    0.0000 C   0  0  0  0  0  0  0  0  0  0  0  0
   -0.1847   -1.3107    0.0000 C   0  0  0  0  0  0  0  0  0  0  0  0
    0.5298    0.7518    0.0000 O   0  0  0  0  0  0  0  0  0  0  0  0
    1.2442   -0.4857    0.0000 N   0  0  0  0  0  0  0  0  0  0  0  0
    1.9586   -0.0732    0.0000 C   0  0  0  0  0  0  0  0  0  0  0  0
    2.6731   -0.4857    0.0000 C   0  0  0  0  0  0  0  0  0  0  0  0
    3.3876   -0.0732    0.0000 C   0  0  0  0  0  0  0  0  0  0  0  0
    3.3876    0.7518    0.0000 C   0  0  0  0  0  0  0  0  0  0  0  0
    2.6731    1.1643    0.0000 C   0  0  0  0  0  0  0  0  0  0  0  0
    1.9586    0.7518    0.0000 C   0  0  0  0  0  0  0  0  0  0  0  0
   -2.3280   -0.0732    0.0000 S   0  0  0  0  0  0  0  0  0  0  0  0
   -1.9155    0.6413    0.0000 O   0  0  0  0  0  0  0  0  0  0  0  0
   -2.7405   -0.7876    0.0000 O   0  0  0  0  0  0  0  0  0  0  0  0
   -3.0425    0.3393    0.0000 N   0  0  0  0  0  0  0  0  0  0  0  0
   -3.7241   -0.1254    0.0000 C   0  0  0  0  0  0  0  0  0  0  0  0
   -4.5125    0.1178    0.0000 C   0  0  0  0  0  0  0  0  0  0  0  0
   -4.8139    0.8857    0.0000 C   0  0  0  0  0  0  0  0  0  0  0  0
   -4.4014    1.6002    0.0000 C   0  0  0  0  0  0  0  0  0  0  0  0
   -3.5856    1.7231    0.0000 C   0  0  0  0  0  0  0  0  0  0  0  0
   -2.9808    1.1620    0.0000 C   0  0  0  0  0  0  0  0  0  0  0  0
    4.1020   -0.4857    0.0000 N   0  3  0  0  0  0  0  0  0  0  0  0
    4.1020   -1.3078    0.0000 O   0  0  0  0  0  0  0  0  0  0  0  0
    4.8139   -0.0746    0.0000 O   0  5  0  0  0  0  0  0  0  0  0  0
  1  2  1  0      
  2  3  1  0      
  3  4  2  0      
  4  5  1  0      
  5  6  2  0      
  6  7  1  0      
  2  7  2  0      
  1  8  2  0      
  1  9  1  0      
 10 11  1  0      
 11 12  2  0      
 12 13  1  0      
 13 14  2  0      
 14 15  1  0      
 10 15  2  0      
  9 10  1  0      
 16 17  2  0      
 16 18  2  0      
 19 20  1  0      
 20 21  1  0      
 21 22  1  0      
 22 23  1  0      
 23 24  1  0      
 24 25  1  0      
 19 25  1  0      
 16 19  1  0      
  4 16  1  0      
 12 26  1  0      
 26 27  2  0      
 26 28  1  0      
M  CHG  2  26   1  28  -1
M  END

>  <RackCode>
HYCPK72334

>  <Cat. No.>
HY-101465

>  <Product Name>
AK-1

>  <ROW>
J

>  <COLUMN>
4

>  <CAS No.>
330461-64-8

>  <MWt>
403.45

>  <Target>
Sirtuin

>  <Saltdate>
Free Base

>  <Smiles>
O=C(NC1=CC=CC([N+]([O-])=O)=C1)C2=CC=CC(S(=O)(N3CCCCCC3)=O)=C2

>  <Solvent>
DMSO Solution

>  <Batch No.>
58849

>  <Quantity>
10mM  * 50uL

>  <Pathway>
Cell Cycle/DNA Damage; Epigenetics

>  <Synonyms>


>  <Formula>
C19H21N3O5S

>  <Research_Area>
Neurological Disease

>  <Clinical_Information>
No Development Reported

>  <SUPPLIER>
MedChemExpress

$$$$
Untitled Document
  ChemDraw09132214182D

 30 34  0  0  0  0  0  0  0  0999 V2000
   -2.4884    0.0203    0.0000 C   0  0  0  0  0  0  0  0  0  0  0  0
   -2.4884   -0.8047    0.0000 C   0  0  0  0  0  0  0  0  0  0  0  0
   -1.7740   -1.2172    0.0000 C   0  0  0  0  0  0  0  0  0  0  0  0
   -1.0595   -0.8047    0.0000 C   0  0  0  0  0  0  0  0  0  0  0  0
   -1.0595    0.0203    0.0000 C   0  0  0  0  0  0  0  0  0  0  0  0
   -1.7740    0.4328    0.0000 C   0  0  0  0  0  0  0  0  0  0  0  0
   -3.2028    0.4328    0.0000 O   0  0  0  0  0  0  0  0  0  0  0  0
    1.7984   -2.4547    0.0000 N   0  0  0  0  0  0  0  0  0  0  0  0
    2.5129   -2.0422    0.0000 C   0  0  0  0  0  0  0  0  0  0  0  0
    2.5129   -1.2172    0.0000 C   0  0  0  0  0  0  0  0  0  0  0  0
    1.7984   -0.8047    0.0000 C   0  0  0  0  0  0  0  0  0  0  0  0
    1.0839   -1.2172    0.0000 C   0  0  0  0  0  0  0  0  0  0  0  0
    0.3695   -0.8047    0.0000 C   0  0  0  0  0  0  0  0  0  0  0  0
   -0.3450   -1.2172    0.0000 C   0  0  0  0  0  0  0  0  0  0  0  0
   -0.3450   -2.0422    0.0000 C   0  0  0  0  0  0  0  0  0  0  0  0
    0.3695   -2.4547    0.0000 C   0  0  0  0  0  0  0  0  0  0  0  0
    1.0839   -2.0422    0.0000 C   0  0  0  0  0  0  0  0  0  0  0  0
    2.7903    0.0885    0.0000 C   0  0  0  0  0  0  0  0  0  0  0  0
    3.1259   -0.6651    0.0000 N   0  0  0  0  0  0  0  0  0  0  0  0
    1.9699    0.0023    0.0000 N   0  0  0  0  0  0  0  0  0  0  0  0
    0.3138    1.8416    0.0000 N   0  0  0  0  0  0  0  0  0  0  0  0
    1.1208    2.0131    0.0000 C   0  0  0  0  0  0  0  0  0  0  0  0
    1.6728    1.4000    0.0000 C   0  0  0  0  0  0  0  0  0  0  0  0
    1.4179    0.6154    0.0000 C   0  0  0  0  0  0  0  0  0  0  0  0
    0.6109    0.4439    0.0000 C   0  0  0  0  0  0  0  0  0  0  0  0
    0.0589    1.0570    0.0000 C   0  0  0  0  0  0  0  0  0  0  0  0
   -0.2382    2.4547    0.0000 C   0  0  0  0  0  0  0  0  0  0  0  0
    3.2028    0.8030    0.0000 C   0  0  0  0  0  0  0  0  0  0  0  0
   -1.7740    1.2578    0.0000 Cl  0  0  0  0  0  0  0  0  0  0  0  0
   -3.2028   -1.2172    0.0000 Cl  0  0  0  0  0  0  0  0  0  0  0  0
  1  2  1  0      
  2  3  2  0      
  3  4  1  0      
  4  5  2  0      
  5  6  1  0      
  1  6  2  0      
  1  7  1  0      
  8  9  2  0      
  9 10  1  0      
 10 11  2  0      
 11 12  1  0      
 12 13  2  0      
 13 14  1  0      
 14 15  2  0      
 15 16  1  0      
 16 17  2  0      
  8 17  1  0      
 12 17  1  0      
 18 19  2  0      
 18 20  1  0      
 19 10  1  0      
 20 11  1  0      
 21 22  1  0      
 22 23  1  0      
 23 24  1  0      
 24 25  1  0      
 25 26  1  0      
 21 26  1  0      
 21 27  1  0      
 20 24  1  0      
 18 28  1  0      
  4 14  1  0      
  6 29  1  0      
  2 30  1  0      
M  END

>  <RackCode>
HYCPK72334

>  <Cat. No.>
HY-151262

>  <Product Name>
JAK-IN-23

>  <ROW>
K

>  <COLUMN>
4

>  <CAS No.>
3031837-35-8

>  <MWt>
441.35

>  <Target>
JAK; NF-¦ÊB; STAT; STING

>  <Saltdate>


>  <Smiles>
OC1=C(Cl)C=C(C2=CC=C3N=CC(N=C(C)N4C5CCN(C)CC5)=C4C3=C2)C=C1Cl

>  <Solvent>
DMSO Solution

>  <Batch No.>
250010

>  <Quantity>
10mM  * 50uL

>  <Pathway>
Epigenetics; Immunology/Inflammation; JAK/STAT Signaling; NF-¦ÊB; Protein Tyrosine Kinase/RTK; Stem Cell/Wnt

>  <Synonyms>


>  <Formula>
C23H22Cl2N4O

>  <Research_Area>
Inflammation/Immunology

>  <Clinical_Information>
No Development Reported

>  <SUPPLIER>
MedChemExpress

$$$$
Untitled Document
  ChemDraw05251710552D

 12 12  0  0  0  0  0  0  0  0999 V2000
   -0.7145   -0.8250    0.0000 C   0  0  0  0  0  0  0  0  0  0  0  0
    0.0000   -1.2375    0.0000 C   0  0  0  0  0  0  0  0  0  0  0  0
    0.0000    0.4125    0.0000 C   0  0  0  0  0  0  0  0  0  0  0  0
   -0.7145   -0.0000    0.0000 C   0  0  0  0  0  0  0  0  0  0  0  0
    0.7145   -0.0000    0.0000 C   0  0  0  0  0  0  0  0  0  0  0  0
   -1.4289    0.4125    0.0000 C   0  0  0  0  0  0  0  0  0  0  0  0
    1.4289    0.4125    0.0000 C   0  0  0  0  0  0  0  0  0  0  0  0
    0.7145   -0.8250    0.0000 N   0  0  0  0  0  0  0  0  0  0  0  0
   -1.4289    1.2375    0.0000 O   0  0  0  0  0  0  0  0  0  0  0  0
   -2.1434   -0.0000    0.0000 O   0  0  0  0  0  0  0  0  0  0  0  0
    2.1434   -0.0000    0.0000 O   0  0  0  0  0  0  0  0  0  0  0  0
    1.4289    1.2375    0.0000 O   0  0  0  0  0  0  0  0  0  0  0  0
  2  1  2  0      
  4  1  1  0      
  4  3  2  0      
  5  3  1  0      
  6  4  1  0      
  7  5  1  0      
  8  2  1  0      
  8  5  2  0      
  9  6  2  0      
 10  6  1  0      
 11  7  1  0      
 12  7  2  0      
M  END

>  <RackCode>
HYCPK72334

>  <Cat. No.>
HY-W017132

>  <Product Name>
2,4-PDCA

>  <ROW>
L

>  <COLUMN>
4

>  <CAS No.>
499-80-9

>  <MWt>
167.12

>  <Target>
Histone Demethylase

>  <Saltdate>


>  <Smiles>
O=C(C1=NC=CC(C(O)=O)=C1)O

>  <Solvent>
DMSO Solution

>  <Batch No.>
168149

>  <Quantity>
10mM  * 50uL

>  <Pathway>
Epigenetics

>  <Synonyms>


>  <Formula>
C7H5NO4

>  <Research_Area>
Cancer

>  <Clinical_Information>
No Development Reported

>  <SUPPLIER>
MedChemExpress

$$$$
Untitled Document
  ChemDraw12111715382D

 16 17  0  0  0  0  0  0  0  0999 V2000
    1.4289    0.4125    0.0000 C   0  0  0  0  0  0  0  0  0  0  0  0
    2.1434   -0.0000    0.0000 C   0  0  0  0  0  0  0  0  0  0  0  0
    0.0000    0.4125    0.0000 C   0  0  0  0  0  0  0  0  0  0  0  0
    0.7145   -0.0000    0.0000 C   0  0  0  0  0  0  0  0  0  0  0  0
    0.7145   -0.8250    0.0000 C   0  0  0  0  0  0  0  0  0  0  0  0
    0.0000   -1.2375    0.0000 C   0  0  0  0  0  0  0  0  0  0  0  0
   -0.7145   -0.8250    0.0000 C   0  0  0  0  0  0  0  0  0  0  0  0
   -1.4289   -1.2375    0.0000 C   0  0  0  0  0  0  0  0  0  0  0  0
   -2.1434   -0.8250    0.0000 C   0  0  0  0  0  0  0  0  0  0  0  0
   -2.1434   -0.0000    0.0000 C   0  0  0  0  0  0  0  0  0  0  0  0
   -1.4289    0.4125    0.0000 C   0  0  0  0  0  0  0  0  0  0  0  0
   -0.7145   -0.0000    0.0000 C   0  0  0  0  0  0  0  0  0  0  0  0
    1.4289   -1.2375    0.0000 C   0  0  0  0  0  0  0  0  0  0  0  0
   -1.4289    1.2375    0.0000 O   0  0  0  0  0  0  0  0  0  0  0  0
    0.0000    1.2375    0.0000 O   0  0  0  0  0  0  0  0  0  0  0  0
    1.4289    1.2375    0.0000 O   0  0  0  0  0  0  0  0  0  0  0  0
  1  2  1  0      
  3  4  1  0      
  4  5  2  0      
  5  6  1  0      
  6  7  2  0      
  7  8  1  0      
  8  9  2  0      
  9 10  1  0      
 10 11  2  0      
 11 12  1  0      
  3 12  2  0      
  7 12  1  0      
  5 13  1  0      
 11 14  1  0      
  3 15  1  0      
  1  4  1  0      
  1 16  2  0      
M  END

>  <RackCode>
HYCPK72334

>  <Cat. No.>
HY-N5018

>  <Product Name>
Nepodin

>  <ROW>
M

>  <COLUMN>
4

>  <CAS No.>
3785-24-8

>  <MWt>
216.23

>  <Target>
AMPK; Parasite

>  <Saltdate>


>  <Smiles>
CC(C1=C(C)C=C2C=CC=C(O)C2=C1O)=O

>  <Solvent>
DMSO Solution

>  <Batch No.>
242679

>  <Quantity>
10mM  * 50uL

>  <Pathway>
Anti-infection; Epigenetics; PI3K/Akt/mTOR

>  <Synonyms>
Musizin

>  <Formula>
C13H12O3

>  <Research_Area>
Infection

>  <Clinical_Information>
No Development Reported

>  <SUPPLIER>
MedChemExpress

$$$$
Untitled Document
  ChemDraw05182015172D

 32 35  0  0  0  0  0  0  0  0999 V2000
    1.1460    1.7605    0.0000 C   0  0  0  0  0  0  0  0  0  0  0  0
    1.8604    2.1730    0.0000 C   0  0  0  0  0  0  0  0  0  0  0  0
    1.1460    0.9355    0.0000 N   0  0  0  0  0  0  0  0  0  0  0  0
    2.5749    1.7605    0.0000 N   0  0  0  0  0  0  0  0  0  0  0  0
    2.5749    0.9355    0.0000 C   0  0  0  0  0  0  0  0  0  0  0  0
    1.8604    0.5230    0.0000 C   0  0  0  0  0  0  0  0  0  0  0  0
    0.3613    2.0154    0.0000 C   0  0  0  0  0  0  0  0  0  0  0  0
   -0.1236    1.3480    0.0000 C   0  0  0  0  0  0  0  0  0  0  0  0
    0.3613    0.6806    0.0000 C   0  0  0  0  0  0  0  0  0  0  0  0
    1.8604    2.9980    0.0000 O   0  0  0  0  0  0  0  0  0  0  0  0
    0.1064    2.8001    0.0000 C   0  0  0  0  0  0  0  0  0  0  0  0
    0.6584   -0.7172    0.0000 C   0  0  0  0  0  0  0  0  0  0  0  0
    0.1064   -0.1041    0.0000 C   0  0  0  0  0  0  0  0  0  0  0  0
   -0.7006   -0.2756    0.0000 C   0  0  0  0  0  0  0  0  0  0  0  0
   -0.9555   -1.0602    0.0000 C   0  0  0  0  0  0  0  0  0  0  0  0
   -0.4035   -1.6733    0.0000 C   0  0  0  0  0  0  0  0  0  0  0  0
    0.4035   -1.5018    0.0000 N   0  0  0  0  0  0  0  0  0  0  0  0
   -1.7625   -1.2317    0.0000 C   0  0  0  0  0  0  0  0  0  0  0  0
   -2.3145   -0.6186    0.0000 S   0  0  0  0  0  0  0  0  0  0  0  0
   -1.7014   -0.0666    0.0000 O   0  0  0  0  0  0  0  0  0  0  0  0
   -2.9276   -1.1707    0.0000 O   0  0  0  0  0  0  0  0  0  0  0  0
   -2.8666   -0.0055    0.0000 C   0  0  0  0  0  0  0  0  0  0  0  0
   -3.6735   -0.1771    0.0000 C   0  0  0  0  0  0  0  0  0  0  0  0
    1.4654   -0.5456    0.0000 O   0  0  0  0  0  0  0  0  0  0  0  0
    2.0174   -1.1587    0.0000 C   0  0  0  0  0  0  0  0  0  0  0  0
    1.7625   -1.9433    0.0000 C   0  0  0  0  0  0  0  0  0  0  0  0
    2.3145   -2.5564    0.0000 C   0  0  0  0  0  0  0  0  0  0  0  0
    3.1215   -2.3849    0.0000 C   0  0  0  0  0  0  0  0  0  0  0  0
    3.3764   -1.6003    0.0000 C   0  0  0  0  0  0  0  0  0  0  0  0
    2.8244   -0.9872    0.0000 C   0  0  0  0  0  0  0  0  0  0  0  0
    3.6735   -2.9980    0.0000 F   0  0  0  0  0  0  0  0  0  0  0  0
    0.9555   -2.1149    0.0000 F   0  0  0  0  0  0  0  0  0  0  0  0
  1  2  1  0      
  1  3  1  0      
  2  4  1  0      
  4  5  1  0      
  5  6  2  0      
  3  6  1  0      
  7  8  1  0      
  8  9  2  0      
  9  3  1  0      
  7  1  2  0      
  2 10  2  0      
  7 11  1  0      
 12 13  1  0      
 13 14  2  0      
 14 15  1  0      
 15 16  2  0      
 16 17  1  0      
 12 17  2  0      
 19 20  2  0      
 19 21  2  0      
 22 23  1  0      
 19 22  1  0      
 18 19  1  0      
 15 18  1  0      
 25 26  1  0      
 26 27  2  0      
 27 28  1  0      
 28 29  2  0      
 29 30  1  0      
 25 30  2  0      
 24 25  1  0      
 28 31  1  0      
 26 32  1  0      
 12 24  1  0      
  9 13  1  0      
M  END

>  <RackCode>
HYCPK72334

>  <Cat. No.>
HY-131061

>  <Product Name>
BET bromodomain inhibitor 1

>  <ROW>
N

>  <COLUMN>
4

>  <CAS No.>
2411226-02-1

>  <MWt>
459.47

>  <Target>
Epigenetic Reader Domain

>  <Saltdate>


>  <Smiles>
O=C1C2=C(C)C=C(C3=CC(CS(=O)(CC)=O)=CN=C3OC4=CC=C(F)C=C4F)N2C=CN1

>  <Solvent>
DMSO Solution

>  <Batch No.>
124538

>  <Quantity>
10mM  * 50uL

>  <Pathway>
Epigenetics

>  <Synonyms>


>  <Formula>
C22H19F2N3O4S

>  <Research_Area>
Cancer

>  <Clinical_Information>
No Development Reported

>  <SUPPLIER>
MedChemExpress

$$$$
Untitled Document
  ChemDraw02172013182D

 27 29  0  0  0  0  0  0  0  0999 V2000
   -0.6403   -0.7933    0.0000 S   0  0  0  0  0  0  0  0  0  0  0  0
    0.0741   -1.2058    0.0000 C   0  0  0  0  0  0  0  0  0  0  0  0
    0.7886   -0.7933    0.0000 C   0  0  0  0  0  0  0  0  0  0  0  0
    0.8749    0.0272    0.0000 C   0  0  0  0  0  0  0  0  0  0  0  0
    0.2618    0.5792    0.0000 O   0  0  0  0  0  0  0  0  0  0  0  0
    1.6818    0.1987    0.0000 C   0  0  0  0  0  0  0  0  0  0  0  0
    2.0174    0.9524    0.0000 O   0  0  0  0  0  0  0  0  0  0  0  0
    2.0943   -0.5158    0.0000 C   0  0  0  0  0  0  0  0  0  0  0  0
    1.5423   -1.1289    0.0000 O   0  0  0  0  0  0  0  0  0  0  0  0
    2.9148   -0.6020    0.0000 N   0  0  0  0  0  0  0  0  0  0  0  0
    3.3273   -1.3165    0.0000 C   0  0  0  0  0  0  0  0  0  0  0  0
    4.1343   -1.1450    0.0000 N   0  0  0  0  0  0  0  0  0  0  0  0
    4.2205   -0.3245    0.0000 C   0  0  0  0  0  0  0  0  0  0  0  0
    4.8879    0.1604    0.0000 C   0  0  0  0  0  0  0  0  0  0  0  0
    5.6416   -0.1751    0.0000 N   0  0  0  0  0  0  0  0  0  0  0  0
    4.8017    0.9809    0.0000 N   0  0  0  0  0  0  0  0  0  0  0  0
    4.0480    1.3165    0.0000 C   0  0  0  0  0  0  0  0  0  0  0  0
    3.3806    0.8316    0.0000 N   0  0  0  0  0  0  0  0  0  0  0  0
    3.4668    0.0111    0.0000 C   0  0  0  0  0  0  0  0  0  0  0  0
   -1.3548   -1.2058    0.0000 C   0  0  0  0  0  0  0  0  0  0  0  0
   -2.0693   -0.7933    0.0000 C   0  0  0  0  0  0  0  0  0  0  0  0
   -2.7837   -1.2058    0.0000 N   0  0  0  0  0  0  0  0  0  0  0  0
   -3.4982   -0.7933    0.0000 C   0  0  0  0  0  0  0  0  0  0  0  0
   -3.4982    0.0317    0.0000 O   0  0  0  0  0  0  0  0  0  0  0  0
   -4.2127   -1.2058    0.0000 N   0  0  0  0  0  0  0  0  0  0  0  0
   -4.9272   -0.7933    0.0000 C   0  0  0  0  0  0  0  0  0  0  0  0
   -5.6416   -1.2058    0.0000 C   0  0  0  0  0  0  0  0  0  0  0  0
  1  2  1  0      
  3  2  1  6      
  3  4  1  0      
  4  5  1  1      
  4  6  1  0      
  6  7  1  1      
  6  8  1  0      
  8  9  1  0      
  3  9  1  0      
  8 10  1  6      
 10 11  1  0      
 11 12  2  0      
 12 13  1  0      
 13 14  2  0      
 14 15  1  0      
 14 16  1  0      
 16 17  2  0      
 17 18  1  0      
 18 19  2  0      
 13 19  1  0      
 10 19  1  0      
 20 21  1  0      
 23 24  2  0      
 26 27  1  0      
 25 26  1  0      
 23 25  1  0      
 22 23  1  0      
 21 22  1  0      
  1 20  1  0      
M  END

>  <RackCode>
HYCPK72334

>  <Cat. No.>
HY-124131

>  <Product Name>
DS-437

>  <ROW>
O

>  <COLUMN>
4

>  <CAS No.>
1674364-87-4

>  <MWt>
397.45

>  <Target>
Histone Methyltransferase

>  <Saltdate>


>  <Smiles>
O[C@@H]([C@H]([C@H](N1C=NC2=C(N=CN=C21)N)O3)O)[C@H]3CSCCNC(NCC)=O

>  <Solvent>
DMSO Solution

>  <Batch No.>
80863

>  <Quantity>
10mM  * 50uL

>  <Pathway>
Epigenetics

>  <Synonyms>


>  <Formula>
C15H23N7O4S

>  <Research_Area>
Cancer; Inflammation/Immunology

>  <Clinical_Information>
No Development Reported

>  <SUPPLIER>
MedChemExpress

$$$$
Untitled Document
  ChemDraw04262217442D

 17 18  0  0  0  0  0  0  0  0999 V2000
   -0.1068    1.7470    0.0000 C   0  0  0  0  0  0  0  0  0  0  0  0
    0.4452    1.1340    0.0000 C   0  0  0  0  0  0  0  0  0  0  0  0
    1.2522    1.3055    0.0000 C   0  0  0  0  0  0  0  0  0  0  0  0
    0.1903    0.3493    0.0000 C   0  0  0  0  0  0  0  0  0  0  0  0
    0.6752   -0.3181    0.0000 C   0  0  0  0  0  0  0  0  0  0  0  0
    1.5002   -0.3181    0.0000 C   0  0  0  0  0  0  0  0  0  0  0  0
    1.9127   -1.0326    0.0000 C   0  0  0  0  0  0  0  0  0  0  0  0
    2.7377   -1.0326    0.0000 N   0  0  0  0  0  0  0  0  0  0  0  0
    1.5002   -1.7470    0.0000 O   0  0  0  0  0  0  0  0  0  0  0  0
    0.1903   -0.9855    0.0000 N   0  0  0  0  0  0  0  0  0  0  0  0
   -0.5943   -0.7306    0.0000 C   0  0  0  0  0  0  0  0  0  0  0  0
   -1.3088   -1.1431    0.0000 C   0  0  0  0  0  0  0  0  0  0  0  0
   -2.0233   -0.7306    0.0000 C   0  0  0  0  0  0  0  0  0  0  0  0
   -2.0233    0.0944    0.0000 C   0  0  0  0  0  0  0  0  0  0  0  0
   -2.7377    0.5069    0.0000 Br  0  0  0  0  0  0  0  0  0  0  0  0
   -1.3088    0.5069    0.0000 C   0  0  0  0  0  0  0  0  0  0  0  0
   -0.5943    0.0944    0.0000 C   0  0  0  0  0  0  0  0  0  0  0  0
  1  2  1  0      
  2  3  1  0      
  2  4  1  0      
  4  5  2  0      
  5  6  1  0      
  6  7  1  0      
  7  8  1  0      
  7  9  2  0      
  5 10  1  0      
 10 11  1  0      
 11 12  2  0      
 12 13  1  0      
 13 14  2  0      
 14 15  1  0      
 14 16  1  0      
 16 17  2  0      
 11 17  1  0      
  4 17  1  0      
M  END

>  <RackCode>
HYCPK72334

>  <Cat. No.>
HY-146690

>  <Product Name>
SIRT1-IN-3

>  <ROW>
P

>  <COLUMN>
4

>  <CAS No.>
2470969-91-4

>  <MWt>
295.18

>  <Target>
Sirtuin

>  <Saltdate>


>  <Smiles>
CC(C1=C(NC2=CC=C(C=C21)Br)CC(N)=O)C

>  <Solvent>
DMSO Solution

>  <Batch No.>
314622

>  <Quantity>
10mM  * 50uL

>  <Pathway>
Cell Cycle/DNA Damage; Epigenetics

>  <Synonyms>


>  <Formula>
C13H15BrN2O

>  <Research_Area>
Cancer

>  <Clinical_Information>
No Development Reported

>  <SUPPLIER>
MedChemExpress

$$$$
Untitled Document
  ChemDraw04272313332D

 29 32  0  0  0  0  0  0  0  0999 V2000
    1.6231   -1.4674    0.0000 O   0  0  0  0  0  0  0  0  0  0  0  0
    1.7946   -0.6605    0.0000 S   0  0  0  0  0  0  0  0  0  0  0  0
    1.9660    0.1465    0.0000 O   0  0  0  0  0  0  0  0  0  0  0  0
    0.9876   -0.4889    0.0000 N   0  0  0  0  0  0  0  0  0  0  0  0
    0.7327    0.2957    0.0000 C   0  0  0  0  0  0  0  0  0  0  0  0
    1.2176    0.9631    0.0000 N   0  0  0  0  0  0  0  0  0  0  0  0
    0.7327    1.6306    0.0000 O   0  0  0  0  0  0  0  0  0  0  0  0
   -0.0519    1.3756    0.0000 C   0  0  0  0  0  0  0  0  0  0  0  0
   -0.7664    1.7881    0.0000 C   0  0  0  0  0  0  0  0  0  0  0  0
   -1.4809    1.3756    0.0000 C   0  0  0  0  0  0  0  0  0  0  0  0
   -1.4809    0.5506    0.0000 C   0  0  0  0  0  0  0  0  0  0  0  0
   -0.7664    0.1381    0.0000 C   0  0  0  0  0  0  0  0  0  0  0  0
   -0.7664   -0.6869    0.0000 O   0  0  0  0  0  0  0  0  0  0  0  0
   -1.4809   -1.0994    0.0000 C   0  0  0  0  0  0  0  0  0  0  0  0
   -0.0519    0.5506    0.0000 C   0  0  0  0  0  0  0  0  0  0  0  0
   -2.1952    1.7881    0.0000 C   0  0  0  0  0  0  0  0  0  0  0  0
   -2.9097    1.3756    0.0000 N   0  0  0  0  0  0  0  0  0  0  0  0
   -2.9959    0.5552    0.0000 N   0  0  0  0  0  0  0  0  0  0  0  0
   -3.8029    0.3836    0.0000 C   0  0  0  0  0  0  0  0  0  0  0  0
   -4.2154    1.0981    0.0000 C   0  0  0  0  0  0  0  0  0  0  0  0
   -3.6634    1.7112    0.0000 C   0  0  0  0  0  0  0  0  0  0  0  0
    2.6015   -0.8320    0.0000 C   0  0  0  0  0  0  0  0  0  0  0  0
    2.8564   -1.6166    0.0000 C   0  0  0  0  0  0  0  0  0  0  0  0
    3.6634   -1.7881    0.0000 C   0  0  0  0  0  0  0  0  0  0  0  0
    4.2154   -1.1750    0.0000 C   0  0  0  0  0  0  0  0  0  0  0  0
    3.9605   -0.3904    0.0000 C   0  0  0  0  0  0  0  0  0  0  0  0
    3.1535   -0.2189    0.0000 C   0  0  0  0  0  0  0  0  0  0  0  0
    2.8986    0.5657    0.0000 O   0  0  0  0  0  0  0  0  0  0  0  0
    2.0916    0.7373    0.0000 C   0  0  0  0  0  0  0  0  0  0  0  0
  1  2  2  0      
  2  3  2  0      
  2  4  1  0      
  4  5  1  0      
  5  6  2  0      
  6  7  1  0      
  7  8  1  0      
  8  9  2  0      
  9 10  1  0      
 10 11  2  0      
 11 12  1  0      
 12 13  1  0      
 13 14  1  0      
 12 15  2  0      
  8 15  1  0      
  5 15  1  0      
 10 16  1  0      
 16 17  1  0      
 17 18  1  0      
 18 19  2  0      
 19 20  1  0      
 20 21  2  0      
 17 21  1  0      
  2 22  1  0      
 22 23  1  0      
 23 24  2  0      
 24 25  1  0      
 25 26  2  0      
 26 27  1  0      
 22 27  2  0      
 27 28  1  0      
 28 29  1  0      
M  END

>  <RackCode>
HYCPK72334

>  <Cat. No.>
HY-153444

>  <Product Name>
KAT6-IN-1

>  <ROW>
A

>  <COLUMN>
5

>  <CAS No.>
2569008-99-5

>  <MWt>
414.44

>  <Target>
Histone Acetyltransferase

>  <Saltdate>


>  <Smiles>
O=S(NC1=NOC2=CC(CN3N=CC=C3)=CC(OC)=C21)(C4=C(OC)C=CC=C4)=O

>  <Solvent>
DMSO Solution

>  <Batch No.>
292889

>  <Quantity>
10mM  * 50uL

>  <Pathway>
Epigenetics

>  <Synonyms>


>  <Formula>
C19H18N4O5S

>  <Research_Area>
Cancer

>  <Clinical_Information>
No Development Reported

>  <SUPPLIER>
MedChemExpress

$$$$
Untitled Document
  ChemDraw03232316572D

 34 36  0  0  0  0  0  0  0  0999 V2000
   -0.2265    1.6500    0.0000 N   0  0  0  0  0  0  0  0  0  0  0  0
    0.4880    1.2375    0.0000 C   0  0  0  0  0  0  0  0  0  0  0  0
    1.2024    0.8250    0.0000 C   0  0  0  0  0  0  0  0  0  0  0  0
    1.2024    0.0000    0.0000 C   0  0  0  0  0  0  0  0  0  0  0  0
    1.9168   -0.4125    0.0000 N   0  0  0  0  0  0  0  0  0  0  0  0
    2.6313    0.0000    0.0000 C   0  0  0  0  0  0  0  0  0  0  0  0
    2.6313    0.8250    0.0000 C   0  0  0  0  0  0  0  0  0  0  0  0
    3.3458    1.2375    0.0000 C   0  0  0  0  0  0  0  0  0  0  0  0
    4.0602    1.6500    0.0000 N   0  0  0  0  0  0  0  0  0  0  0  0
    1.9168    1.2375    0.0000 C   0  0  0  0  0  0  0  0  0  0  0  0
    1.9168    2.0624    0.0000 C   0  0  0  0  0  0  0  0  0  0  0  0
    2.6313    2.4749    0.0000 C   0  0  0  0  0  0  0  0  0  0  0  0
    3.3458   -0.4125    0.0000 N   0  0  0  0  0  0  0  0  0  0  0  0
    4.0274    0.0522    0.0000 C   0  0  0  0  0  0  0  0  0  0  0  0
    4.8158   -0.1909    0.0000 C   0  0  0  0  0  0  0  0  0  0  0  0
    5.1171   -0.9589    0.0000 N   0  0  0  0  0  0  0  0  0  0  0  0
    5.9421   -0.9589    0.0000 C   0  0  0  0  0  0  0  0  0  0  0  0
    4.7047   -1.6734    0.0000 C   0  0  0  0  0  0  0  0  0  0  0  0
    3.8889   -1.7962    0.0000 C   0  0  0  0  0  0  0  0  0  0  0  0
    3.2841   -1.2352    0.0000 C   0  0  0  0  0  0  0  0  0  0  0  0
    0.4880   -0.4125    0.0000 S   0  0  0  0  0  0  0  0  0  0  0  0
   -0.2265    0.0000    0.0000 C   0  0  0  0  0  0  0  0  0  0  0  0
   -0.9410   -0.4125    0.0000 C   0  0  0  0  0  0  0  0  0  0  0  0
   -0.9410   -1.2375    0.0000 C   0  0  0  0  0  0  0  0  0  0  0  0
   -1.6554   -1.6500    0.0000 C   0  0  0  0  0  0  0  0  0  0  0  0
   -2.3698   -1.2375    0.0000 C   0  0  0  0  0  0  0  0  0  0  0  0
   -2.3698   -0.4125    0.0000 C   0  0  0  0  0  0  0  0  0  0  0  0
   -1.6554    0.0000    0.0000 C   0  0  0  0  0  0  0  0  0  0  0  0
   -3.0843   -1.6500    0.0000 C   0  0  0  0  0  0  0  0  0  0  0  0
   -3.7987   -1.2375    0.0000 N   0  0  0  0  0  0  0  0  0  0  0  0
   -4.5132   -1.6500    0.0000 C   0  0  0  0  0  0  0  0  0  0  0  0
   -4.5132   -2.4749    0.0000 O   0  0  0  0  0  0  0  0  0  0  0  0
   -5.2276   -1.2375    0.0000 C   0  0  0  0  0  0  0  0  0  0  0  0
   -5.9421   -1.6500    0.0000 N   0  0  0  0  0  0  0  0  0  0  0  0
  1  2  3  0      
  2  3  1  0      
  3  4  2  0      
  4  5  1  0      
  5  6  2  0      
  6  7  1  0      
  7  8  1  0      
  8  9  3  0      
  7 10  2  0      
  3 10  1  0      
 10 11  1  0      
 11 12  1  0      
  6 13  1  0      
 13 14  1  0      
 14 15  1  0      
 15 16  1  0      
 16 17  1  0      
 16 18  1  0      
 18 19  1  0      
 19 20  1  0      
 13 20  1  0      
  4 21  1  0      
 21 22  1  0      
 22 23  1  0      
 23 24  2  0      
 24 25  1  0      
 25 26  2  0      
 26 27  1  0      
 27 28  2  0      
 23 28  1  0      
 26 29  1  0      
 29 30  1  0      
 30 31  1  0      
 31 32  2  0      
 31 33  1  0      
 33 34  1  0      
M  END

>  <RackCode>
HYCPK72334

>  <Cat. No.>
HY-150249

>  <Product Name>
GSK3735967

>  <ROW>
B

>  <COLUMN>
5

>  <CAS No.>
2170136-86-2

>  <MWt>
477.62

>  <Target>
DNA Methyltransferase

>  <Saltdate>


>  <Smiles>
N#CC1=C(SCC2=CC=C(CNC(CN)=O)C=C2)N=C(N3CCN(CCC3)C)C(C#N)=C1CC

>  <Solvent>
DMSO Solution

>  <Batch No.>
268984

>  <Quantity>
10mM  * 50uL

>  <Pathway>
Epigenetics

>  <Synonyms>


>  <Formula>
C25H31N7OS

>  <Research_Area>
Cancer

>  <Clinical_Information>
No Development Reported

>  <SUPPLIER>
MedChemExpress

$$$$
Untitled Document
  ChemDraw10261608582D

 22 24  0  0  0  0  0  0  0  0999 V2000
    2.1434    0.0000    0.0000 C   0  0  0  0  0  0  0  0  0  0  0  0
    1.4289    0.4125    0.0000 C   0  0  0  0  0  0  0  0  0  0  0  0
    1.4289    1.2375    0.0000 C   0  0  0  0  0  0  0  0  0  0  0  0
    2.1434    1.6500    0.0000 C   0  0  0  0  0  0  0  0  0  0  0  0
    2.8579    1.2375    0.0000 C   0  0  0  0  0  0  0  0  0  0  0  0
    2.8579    0.4125    0.0000 N   0  0  0  0  0  0  0  0  0  0  0  0
    0.7145    1.6500    0.0000 C   0  0  0  0  0  0  0  0  0  0  0  0
    0.7145    2.4750    0.0000 O   0  0  0  0  0  0  0  0  0  0  0  0
    0.0000    1.2375    0.0000 N   0  0  0  0  0  0  0  0  0  0  0  0
    0.0000    0.4125    0.0000 N   0  0  0  0  0  0  0  0  0  0  0  0
   -0.7145    0.0000    0.0000 C   0  0  0  0  0  0  0  0  0  0  0  0
   -0.7145   -0.8250    0.0000 C   0  0  0  0  0  0  0  0  0  0  0  0
    0.0000   -1.2375    0.0000 C   0  0  0  0  0  0  0  0  0  0  0  0
    0.0000   -2.0625    0.0000 C   0  0  0  0  0  0  0  0  0  0  0  0
   -0.7145   -2.4750    0.0000 C   0  0  0  0  0  0  0  0  0  0  0  0
   -1.4289   -2.0625    0.0000 C   0  0  0  0  0  0  0  0  0  0  0  0
   -2.1434   -2.4750    0.0000 C   0  0  0  0  0  0  0  0  0  0  0  0
   -2.8579   -2.0625    0.0000 C   0  0  0  0  0  0  0  0  0  0  0  0
   -2.8579   -1.2375    0.0000 C   0  0  0  0  0  0  0  0  0  0  0  0
   -2.1434   -0.8250    0.0000 C   0  0  0  0  0  0  0  0  0  0  0  0
   -1.4289   -1.2375    0.0000 C   0  0  0  0  0  0  0  0  0  0  0  0
    0.7145   -0.8250    0.0000 O   0  0  0  0  0  0  0  0  0  0  0  0
  1  2  1  0      
  2  3  2  0      
  3  4  1  0      
  4  5  2  0      
  5  6  1  0      
  1  6  2  0      
  7  8  2  0      
  9 10  1  0      
 12 13  1  0      
 13 14  2  0      
 14 15  1  0      
 15 16  2  0      
 16 17  1  0      
 17 18  2  0      
 18 19  1  0      
 19 20  2  0      
 20 21  1  0      
 12 21  2  0      
 16 21  1  0      
 13 22  1  0      
 11 12  1  0      
 10 11  2  0      
  7  9  1  0      
  3  7  1  0      
M  END

>  <RackCode>
HYCPK72334

>  <Cat. No.>
HY-100744

>  <Product Name>
AS8351

>  <ROW>
C

>  <COLUMN>
5

>  <CAS No.>
796-42-9

>  <MWt>
291.30

>  <Target>
Histone Demethylase

>  <Saltdate>
Free Base

>  <Smiles>
O=C(C1=CC=NC=C1)N/N=C/C2=C3C=CC=CC3=CC=C2O

>  <Solvent>
DMSO Solution

>  <Batch No.>
26534

>  <Quantity>
10mM  * 50uL

>  <Pathway>
Epigenetics

>  <Synonyms>
NSC51355

>  <Formula>
C17H13N3O2

>  <Research_Area>
Cardiovascular Disease

>  <Clinical_Information>
No Development Reported

>  <SUPPLIER>
MedChemExpress

$$$$
Untitled Document
  ChemDraw12131616182D

 38 43  0  0  0  0  0  0  0  0999 V2000
   -3.7005    2.3985    0.0000 C   0  0  0  0  0  0  0  0  0  0  0  0
   -3.1485    1.7854    0.0000 C   0  0  0  0  0  0  0  0  0  0  0  0
   -2.3415    1.9569    0.0000 C   0  0  0  0  0  0  0  0  0  0  0  0
   -2.0866    2.7415    0.0000 C   0  0  0  0  0  0  0  0  0  0  0  0
   -2.6386    3.3546    0.0000 C   0  0  0  0  0  0  0  0  0  0  0  0
   -3.4456    3.1831    0.0000 C   0  0  0  0  0  0  0  0  0  0  0  0
   -1.6741    1.4720    0.0000 N   0  0  0  0  0  0  0  0  0  0  0  0
   -1.0066    1.9569    0.0000 C   0  0  0  0  0  0  0  0  0  0  0  0
   -1.2616    2.7415    0.0000 C   0  0  0  0  0  0  0  0  0  0  0  0
   -0.1997    1.7854    0.0000 C   0  0  0  0  0  0  0  0  0  0  0  0
    0.3524    2.3985    0.0000 C   0  0  0  0  0  0  0  0  0  0  0  0
    0.0974    3.1831    0.0000 C   0  0  0  0  0  0  0  0  0  0  0  0
   -0.7095    3.3546    0.0000 C   0  0  0  0  0  0  0  0  0  0  0  0
   -1.6741    0.6470    0.0000 C   0  0  0  0  0  0  0  0  0  0  0  0
   -0.9596    0.2345    0.0000 C   0  0  0  0  0  0  0  0  0  0  0  0
   -0.2451    0.6470    0.0000 O   0  0  0  0  0  0  0  0  0  0  0  0
   -0.9596   -0.5905    0.0000 C   0  0  0  0  0  0  0  0  0  0  0  0
   -1.6741   -1.0030    0.0000 N   0  0  0  0  0  0  0  0  0  0  0  0
    0.4693    0.2345    0.0000 C   0  0  0  0  0  0  0  0  0  0  0  0
    1.1838    0.6470    0.0000 C   0  0  0  0  0  0  0  0  0  0  0  0
    1.8983    0.2345    0.0000 C   0  0  0  0  0  0  0  0  0  0  0  0
    1.1838    1.4720    0.0000 O   0  0  0  0  0  0  0  0  0  0  0  0
    2.6128    0.6470    0.0000 N   0  0  0  0  0  0  0  0  0  0  0  0
    3.3272    0.2345    0.0000 C   0  0  0  0  0  0  0  0  0  0  0  0
    4.0417    0.6470    0.0000 C   0  0  0  0  0  0  0  0  0  0  0  0
    3.3272   -0.5905    0.0000 C   0  0  0  0  0  0  0  0  0  0  0  0
   -1.7603   -1.8235    0.0000 C   0  0  0  0  0  0  0  0  0  0  0  0
   -2.5673   -1.9950    0.0000 C   0  0  0  0  0  0  0  0  0  0  0  0
   -2.9798   -1.2806    0.0000 C   0  0  0  0  0  0  0  0  0  0  0  0
   -2.4278   -0.6675    0.0000 C   0  0  0  0  0  0  0  0  0  0  0  0
   -1.2510   -2.4726    0.0000 C   0  0  0  0  0  0  0  0  0  0  0  0
   -1.5585   -3.2381    0.0000 C   0  0  0  0  0  0  0  0  0  0  0  0
   -2.3752   -3.3546    0.0000 C   0  0  0  0  0  0  0  0  0  0  0  0
   -2.8845   -2.7056    0.0000 C   0  0  0  0  0  0  0  0  0  0  0  0
   -3.7868   -1.1090    0.0000 C   0  0  0  0  0  0  0  0  0  0  0  0
   -4.0417   -0.3244    0.0000 C   0  0  0  0  0  0  0  0  0  0  0  0
   -3.4897    0.2887    0.0000 C   0  0  0  0  0  0  0  0  0  0  0  0
   -2.6827    0.1172    0.0000 C   0  0  0  0  0  0  0  0  0  0  0  0
  1  2  2  0      
  2  3  1  0      
  3  4  2  0      
  4  5  1  0      
  5  6  2  0      
  6  1  1  0      
  3  7  1  0      
  7  8  1  0      
  8  9  1  0      
  9  4  1  0      
  8 10  2  0      
 10 11  1  0      
 11 12  2  0      
 12 13  1  0      
 13  9  2  0      
  7 14  1  0      
 14 15  1  0      
 15 16  1  0      
 15 17  1  0      
 17 18  1  0      
 16 19  1  0      
 19 20  1  0      
 20 21  1  0      
 20 22  1  0      
 21 23  1  0      
 23 24  1  0      
 24 25  1  0      
 24 26  1  0      
 18 27  1  0      
 27 28  2  0      
 28 29  1  0      
 29 30  2  0      
 30 18  1  0      
 27 31  1  0      
 31 32  2  0      
 32 33  1  0      
 33 34  2  0      
 34 28  1  0      
 29 35  1  0      
 35 36  2  0      
 36 37  1  0      
 37 38  2  0      
 38 30  1  0      
M  END

>  <RackCode>
HYCPK72334

>  <Cat. No.>
HY-12747

>  <Product Name>
DC_517

>  <ROW>
D

>  <COLUMN>
5

>  <CAS No.>
500017-70-9

>  <MWt>
505.65

>  <Target>
DNA Methyltransferase

>  <Saltdate>
Free Base

>  <Smiles>
OC(CNC(C)C)COC(CN1C(C=CC=C2)=C2C3=C1C=CC=C3)CN(C4=CC=CC=C45)C6=C5C=CC=C6

>  <Solvent>
DMSO Solution

>  <Batch No.>
16908

>  <Quantity>
10mM  * 50uL

>  <Pathway>
Epigenetics

>  <Synonyms>


>  <Formula>
C33H35N3O2

>  <Research_Area>
Cancer

>  <Clinical_Information>
No Development Reported

>  <SUPPLIER>
MedChemExpress

$$$$
Untitled Document
  ChemDraw05182011232D

 17 19  0  0  0  0  0  0  0  0999 V2000
    1.8229   -1.6486    0.0000 C   0  0  0  0  0  0  0  0  0  0  0  0
    1.0938   -1.2627    0.0000 C   0  0  0  0  0  0  0  0  0  0  0  0
    0.3949   -1.7012    0.0000 C   0  0  0  0  0  0  0  0  0  0  0  0
   -0.3342   -1.3153    0.0000 C   0  0  0  0  0  0  0  0  0  0  0  0
   -0.3646   -0.4909    0.0000 C   0  0  0  0  0  0  0  0  0  0  0  0
    0.3342   -0.0523    0.0000 C   0  0  0  0  0  0  0  0  0  0  0  0
    1.0634   -0.4383    0.0000 C   0  0  0  0  0  0  0  0  0  0  0  0
    2.5521   -2.0346    0.0000 N   0  0  0  0  0  0  0  0  0  0  0  0
   -1.8533    1.1054    0.0000 C   0  0  0  0  0  0  0  0  0  0  0  0
   -2.5521    0.6669    0.0000 C   0  0  0  0  0  0  0  0  0  0  0  0
   -2.5217   -0.1575    0.0000 C   0  0  0  0  0  0  0  0  0  0  0  0
   -1.7926   -0.5434    0.0000 C   0  0  0  0  0  0  0  0  0  0  0  0
   -1.0938   -0.1049    0.0000 C   0  0  0  0  0  0  0  0  0  0  0  0
   -1.1241    0.7195    0.0000 N   0  0  0  0  0  0  0  0  0  0  0  0
   -0.5318    1.2937    0.0000 N   0  0  0  0  0  0  0  0  0  0  0  0
   -0.8948    2.0346    0.0000 C   0  0  0  0  0  0  0  0  0  0  0  0
   -1.7116    1.9182    0.0000 N   0  0  0  0  0  0  0  0  0  0  0  0
  1  2  1  0      
  2  3  1  0      
  3  4  2  0      
  4  5  1  0      
  5  6  2  0      
  6  7  1  0      
  2  7  2  0      
  1  8  3  0      
  9 10  1  0      
 10 11  2  0      
 11 12  1  0      
 12 13  2  0      
 13 14  1  0      
  9 14  1  0      
 15 16  2  0      
 16 17  1  0      
 15 14  1  0      
 17  9  2  0      
  5 13  1  0      
M  END

>  <RackCode>
HYCPK72334

>  <Cat. No.>
HY-136300

>  <Product Name>
PHD-1-IN-1

>  <ROW>
E

>  <COLUMN>
5

>  <CAS No.>
2009343-14-8

>  <MWt>
220.23

>  <Target>
HIF/HIF Prolyl-Hydroxylase

>  <Saltdate>
Free Base

>  <Smiles>
N#CC1=CC=C(C2=CC=CC3=NC=NN23)C=C1

>  <Solvent>
DMSO Solution

>  <Batch No.>
158778

>  <Quantity>
10mM  * 50uL

>  <Pathway>
Metabolic Enzyme/Protease

>  <Synonyms>


>  <Formula>
C13H8N4

>  <Research_Area>
Inflammation/Immunology; Cardiovascular Disease

>  <Clinical_Information>
No Development Reported

>  <SUPPLIER>
MedChemExpress

$$$$
Untitled Document
  ChemDraw08042014372D

 18 18  0  0  0  0  0  0  0  0999 V2000
   -1.2196    0.7620    0.0000 C   0  0  0  0  0  0  0  0  0  0  0  0
   -1.1333   -0.0585    0.0000 C   0  0  0  0  0  0  0  0  0  0  0  0
   -1.8869   -0.3941    0.0000 C   0  0  0  0  0  0  0  0  0  0  0  0
   -2.4389    0.2190    0.0000 C   0  0  0  0  0  0  0  0  0  0  0  0
   -2.0264    0.9335    0.0000 S   0  0  0  0  0  0  0  0  0  0  0  0
   -0.6065    1.3140    0.0000 C   0  0  0  0  0  0  0  0  0  0  0  0
   -0.7780    2.1209    0.0000 O   0  0  0  0  0  0  0  0  0  0  0  0
    0.1782    1.0591    0.0000 O   0  0  0  0  0  0  0  0  0  0  0  0
   -0.4189   -0.4710    0.0000 N   0  0  0  0  0  0  0  0  0  0  0  0
    0.2956   -0.0585    0.0000 N   0  0  0  0  0  0  0  0  0  0  0  0
    1.0101   -0.4710    0.0000 C   0  0  0  0  0  0  0  0  0  0  0  0
    1.7245   -0.0585    0.0000 S   0  0  0  0  0  0  0  0  0  0  0  0
    2.1370   -0.7730    0.0000 O   0  0  0  0  0  0  0  0  0  0  0  0
    1.3121    0.6560    0.0000 O   0  0  0  0  0  0  0  0  0  0  0  0
    2.4389    0.3540    0.0000 C   0  0  0  0  0  0  0  0  0  0  0  0
    1.0101   -1.2960    0.0000 C   0  0  0  0  0  0  0  0  0  0  0  0
    1.0101   -2.1209    0.0000 N   0  0  0  0  0  0  0  0  0  0  0  0
    0.7615    1.6424    0.0000 C   0  0  0  0  0  0  0  0  0  0  0  0
  1  2  2  0      
  2  3  1  0      
  3  4  2  0      
  4  5  1  0      
  1  5  1  0      
  6  7  2  0      
  6  8  1  0      
  1  6  1  0      
  9 10  1  0      
 12 13  2  0      
 12 14  2  0      
 12 15  1  0      
 11 12  1  0      
 16 17  3  0      
 11 16  1  0      
 10 11  2  0      
  2  9  1  0      
  8 18  1  0      
M  END

>  <RackCode>
HYCPK72334

>  <Cat. No.>
HY-136748

>  <Product Name>
HIF-2¦Á-IN-4

>  <ROW>
F

>  <COLUMN>
5

>  <CAS No.>
882268-69-1

>  <MWt>
287.32

>  <Target>
HIF/HIF Prolyl-Hydroxylase

>  <Saltdate>


>  <Smiles>
O=C(C1=C(N/N=C(C#N)/S(=O)(C)=O)C=CS1)OC

>  <Solvent>
DMSO Solution

>  <Batch No.>
156980

>  <Quantity>
10mM  * 50uL

>  <Pathway>
Metabolic Enzyme/Protease

>  <Synonyms>


>  <Formula>
C9H9N3O4S2

>  <Research_Area>
Cancer

>  <Clinical_Information>
No Development Reported

>  <SUPPLIER>
MedChemExpress

$$$$
Untitled Document
  ChemDraw08092416112D

 85 92  0  0  0  0  0  0  0  0999 V2000
   -8.7141   -0.0838    0.0000 N   0  0  0  0  0  0  0  0  0  0  0  0
   -9.4286   -0.4963    0.0000 C   0  0  0  0  0  0  0  0  0  0  0  0
  -10.1430   -0.0838    0.0000 C   0  0  0  0  0  0  0  0  0  0  0  0
   -7.9996   -0.4963    0.0000 C   0  0  0  0  0  0  0  0  0  0  0  0
   -7.2852   -0.0838    0.0000 C   0  0  0  0  0  0  0  0  0  0  0  0
   -6.5707   -0.4963    0.0000 C   0  0  0  0  0  0  0  0  0  0  0  0
   -6.5707   -1.3213    0.0000 C   0  0  0  0  0  0  0  0  0  0  0  0
   -7.2852   -1.7338    0.0000 C   0  0  0  0  0  0  0  0  0  0  0  0
   -7.2852   -2.5588    0.0000 C   0  0  0  0  0  0  0  0  0  0  0  0
   -7.9996   -2.9713    0.0000 N   0  0  0  0  0  0  0  0  0  0  0  0
   -7.9996   -3.7963    0.0000 C   0  0  0  0  0  0  0  0  0  0  0  0
   -8.7141   -4.2088    0.0000 C   0  0  0  0  0  0  0  0  0  0  0  0
   -9.4286   -3.7963    0.0000 C   0  0  0  0  0  0  0  0  0  0  0  0
   -9.4286   -2.9713    0.0000 C   0  0  0  0  0  0  0  0  0  0  0  0
  -10.1430   -4.2088    0.0000 C   0  0  0  0  0  0  0  0  0  0  0  0
  -10.1430   -5.0338    0.0000 C   0  0  0  0  0  0  0  0  0  0  0  0
  -10.8575   -5.4463    0.0000 C   0  0  0  0  0  0  0  0  0  0  0  0
   -9.4286   -5.4463    0.0000 N   0  0  0  0  0  0  0  0  0  0  0  0
   -8.7141   -5.0338    0.0000 C   0  0  0  0  0  0  0  0  0  0  0  0
   -7.9996   -5.4463    0.0000 O   0  0  0  0  0  0  0  0  0  0  0  0
   -6.5707   -2.9713    0.0000 O   0  0  0  0  0  0  0  0  0  0  0  0
   -7.9996   -1.3213    0.0000 C   0  0  0  0  0  0  0  0  0  0  0  0
   -8.7141   -1.7338    0.0000 C   0  0  0  0  0  0  0  0  0  0  0  0
   -5.8562   -0.0838    0.0000 C   0  0  0  0  0  0  0  0  0  0  0  0
   -5.1417   -0.4963    0.0000 C   0  0  0  0  0  0  0  0  0  0  0  0
   -4.4273   -0.0838    0.0000 C   0  0  0  0  0  0  0  0  0  0  0  0
   -4.4273    0.7412    0.0000 C   0  0  0  0  0  0  0  0  0  0  0  0
   -3.7128    1.1537    0.0000 C   0  0  0  0  0  0  0  0  0  0  0  0
   -2.9983    0.7412    0.0000 N   0  0  0  0  0  0  0  0  0  0  0  0
   -2.9983   -0.0838    0.0000 C   0  0  0  0  0  0  0  0  0  0  0  0
   -2.2839   -0.4963    0.0000 C   0  0  0  0  0  0  0  0  0  0  0  0
   -1.5694   -0.0838    0.0000 N   0  0  0  0  0  0  0  0  0  0  0  0
   -0.8549   -0.4963    0.0000 C   0  0  0  0  0  0  0  0  0  0  0  0
   -0.1404   -0.0838    0.0000 C   0  0  0  0  0  0  0  0  0  0  0  0
    0.5740   -0.4963    0.0000 C   0  0  0  0  0  0  0  0  0  0  0  0
    1.2885   -0.0838    0.0000 C   0  0  0  0  0  0  0  0  0  0  0  0
    2.0030   -0.4963    0.0000 C   0  0  0  0  0  0  0  0  0  0  0  0
    2.7174   -0.0838    0.0000 C   0  0  0  0  0  0  0  0  0  0  0  0
    3.4319   -0.4963    0.0000 C   0  0  0  0  0  0  0  0  0  0  0  0
    4.1464   -0.0838    0.0000 C   0  0  0  0  0  0  0  0  0  0  0  0
    4.8609   -0.4963    0.0000 C   0  0  0  0  0  0  0  0  0  0  0  0
    5.5753   -0.0838    0.0000 C   0  0  0  0  0  0  0  0  0  0  0  0
    6.2898   -0.4963    0.0000 C   0  0  0  0  0  0  0  0  0  0  0  0
    7.0043   -0.0838    0.0000 N   0  0  0  0  0  0  0  0  0  0  0  0
    7.7187   -0.4963    0.0000 C   0  0  0  0  0  0  0  0  0  0  0  0
    8.4332   -0.0838    0.0000 C   0  0  0  0  0  0  0  0  0  0  0  0
    8.4332    0.7412    0.0000 O   0  0  0  0  0  0  0  0  0  0  0  0
    9.1477   -0.4963    0.0000 N   0  0  0  0  0  0  0  0  0  0  0  0
    9.9014   -0.1608    0.0000 C   0  0  0  0  0  0  0  0  0  0  0  0
   10.0729    0.6462    0.0000 C   0  0  0  0  0  0  0  0  0  0  0  0
    9.4598    1.1982    0.0000 N   0  0  0  0  0  0  0  0  0  0  0  0
    9.6313    2.0052    0.0000 C   0  0  0  0  0  0  0  0  0  0  0  0
    9.0182    2.5572    0.0000 C   0  0  0  0  0  0  0  0  0  0  0  0
    9.1897    3.3642    0.0000 C   0  0  0  0  0  0  0  0  0  0  0  0
    8.5767    3.9162    0.0000 C   0  0  0  0  0  0  0  0  0  0  0  0
    7.7920    3.6613    0.0000 C   0  0  0  0  0  0  0  0  0  0  0  0
    7.6205    2.8543    0.0000 C   0  0  0  0  0  0  0  0  0  0  0  0
    8.2336    2.3023    0.0000 C   0  0  0  0  0  0  0  0  0  0  0  0
    7.1789    4.2133    0.0000 C   0  0  0  0  0  0  0  0  0  0  0  0
    7.2652    5.0338    0.0000 C   0  0  0  0  0  0  0  0  0  0  0  0
    7.9796    5.4463    0.0000 C   0  0  0  0  0  0  0  0  0  0  0  0
    6.5115    5.3694    0.0000 N   0  0  0  0  0  0  0  0  0  0  0  0
    5.9595    4.7563    0.0000 C   0  0  0  0  0  0  0  0  0  0  0  0
    6.3720    4.0418    0.0000 S   0  0  0  0  0  0  0  0  0  0  0  0
   10.8575    0.9011    0.0000 O   0  0  0  0  0  0  0  0  0  0  0  0
   10.4534   -0.7739    0.0000 C   0  0  0  0  0  0  0  0  0  0  0  0
   10.0409   -1.4883    0.0000 C   0  0  0  0  0  0  0  0  0  0  0  0
   10.3764   -2.2420    0.0000 O   0  0  0  0  0  0  0  0  0  0  0  0
    9.2339   -1.3168    0.0000 C   0  0  0  0  0  0  0  0  0  0  0  0
    7.7187   -1.3213    0.0000 C   0  0  0  0  0  0  0  0  0  0  0  0
    8.4332   -1.7338    0.0000 C   0  0  0  0  0  0  0  0  0  0  0  0
    7.0043   -1.7338    0.0000 C   0  0  0  0  0  0  0  0  0  0  0  0
    7.7187   -2.1463    0.0000 C   0  0  0  0  0  0  0  0  0  0  0  0
    6.2898   -1.3213    0.0000 O   0  0  0  0  0  0  0  0  0  0  0  0
   -0.8549   -1.3213    0.0000 O   0  0  0  0  0  0  0  0  0  0  0  0
   -1.5694    0.7412    0.0000 C   0  0  0  0  0  0  0  0  0  0  0  0
   -2.2839    1.1537    0.0000 C   0  0  0  0  0  0  0  0  0  0  0  0
   -5.1417    1.1537    0.0000 C   0  0  0  0  0  0  0  0  0  0  0  0
   -5.8562    0.7412    0.0000 C   0  0  0  0  0  0  0  0  0  0  0  0
   -8.7141    0.7412    0.0000 C   0  0  0  0  0  0  0  0  0  0  0  0
   -7.9996    1.1537    0.0000 C   0  0  0  0  0  0  0  0  0  0  0  0
   -7.9996    1.9787    0.0000 C   0  0  0  0  0  0  0  0  0  0  0  0
   -8.7141    2.3912    0.0000 O   0  0  0  0  0  0  0  0  0  0  0  0
   -9.4286    1.9787    0.0000 C   0  0  0  0  0  0  0  0  0  0  0  0
   -9.4286    1.1537    0.0000 C   0  0  0  0  0  0  0  0  0  0  0  0
  1  2  1  0      
  2  3  1  0      
  1  4  1  0      
  4  5  2  0      
  5  6  1  0      
  6  7  2  0      
  7  8  1  0      
  8  9  1  0      
  9 10  1  0      
 10 11  1  0      
 11 12  1  0      
 12 13  2  0      
 13 14  1  0      
 13 15  1  0      
 15 16  2  0      
 16 17  1  0      
 16 18  1  0      
 18 19  1  0      
 12 19  1  0      
 19 20  2  0      
  9 21  2  0      
  8 22  2  0      
  4 22  1  0      
 22 23  1  0      
  6 24  1  0      
 24 25  2  0      
 25 26  1  0      
 26 27  2  0      
 27 28  1  0      
 28 29  1  0      
 29 30  1  0      
 30 31  1  0      
 31 32  1  0      
 32 33  1  0      
 33 34  1  0      
 34 35  1  0      
 35 36  1  0      
 36 37  1  0      
 37 38  1  0      
 38 39  1  0      
 39 40  1  0      
 40 41  1  0      
 41 42  1  0      
 42 43  1  0      
 43 44  1  0      
 44 45  1  0      
 45 46  1  0      
 46 47  2  0      
 46 48  1  0      
 48 49  1  0      
 49 50  1  6      
 50 51  1  0      
 51 52  1  0      
 52 53  1  0      
 53 54  2  0      
 54 55  1  0      
 55 56  2  0      
 56 57  1  0      
 57 58  2  0      
 53 58  1  0      
 56 59  1  0      
 59 60  2  0      
 60 61  1  0      
 60 62  1  0      
 62 63  2  0      
 63 64  1  0      
 59 64  1  0      
 50 65  2  0      
 49 66  1  0      
 66 67  1  0      
 67 68  1  1      
 67 69  1  0      
 48 69  1  0      
 45 70  1  6      
 70 71  1  0      
 70 72  1  0      
 70 73  1  0      
 43 74  2  0      
 33 75  2  0      
 32 76  1  0      
 76 77  1  0      
 29 77  1  0      
 27 78  1  0      
 78 79  2  0      
 24 79  1  0      
  1 80  1  0      
 80 81  1  0      
 81 82  1  0      
 82 83  1  0      
 83 84  1  0      
 84 85  1  0      
 80 85  1  0      
M  END

>  <RackCode>
HYCPK72334

>  <Cat. No.>
HY-157844

>  <Product Name>
NUCC-0226272

>  <ROW>
G

>  <COLUMN>
5

>  <CAS No.>
3004503-12-9

>  <MWt>
1182.56

>  <Target>
Histone Methyltransferase; PROTACs

>  <Saltdate>


>  <Smiles>
CCN(C1CCOCC1)C2=CC(C3=CC=C(C=C3)CN4CCN(CC4)C(CCCCCCCCCC(N[C@@H](C(C)(C)C)C(N5[C@@H](C[C@H](C5)O)C(NCC6=CC=C(C7=C(N=CS7)C)C=C6)=O)=O)=O)=O)=CC(C(NCC8=C(C=C(NC8=O)C)C)=O)=C2C

>  <Solvent>
DMSO Solution

>  <Batch No.>
416877

>  <Quantity>
10mM  * 50uL

>  <Pathway>
Epigenetics; PROTAC

>  <Synonyms>


>  <Formula>
C67H91N9O8S

>  <Research_Area>
Cancer

>  <Clinical_Information>
No Development Reported

>  <SUPPLIER>
MedChemExpress

$$$$
Untitled Document
  ChemDraw11211817162D

 34 38  0  0  0  0  0  0  0  0999 V2000
    3.2151    3.3000    0.0000 O   0  0  0  0  0  0  0  0  0  0  0  0
    3.2151    2.4750    0.0000 C   0  0  0  0  0  0  0  0  0  0  0  0
    3.9296    2.0625    0.0000 N   0  0  0  0  0  0  0  0  0  0  0  0
    3.9296    1.2375    0.0000 N   0  0  0  0  0  0  0  0  0  0  0  0
    3.2151    0.8250    0.0000 C   0  0  0  0  0  0  0  0  0  0  0  0
    3.2151    0.0000    0.0000 C   0  0  0  0  0  0  0  0  0  0  0  0
    2.5006   -0.4125    0.0000 C   0  0  0  0  0  0  0  0  0  0  0  0
    2.5006   -1.2375    0.0000 C   0  0  0  0  0  0  0  0  0  0  0  0
    1.7862   -1.6500    0.0000 C   0  0  0  0  0  0  0  0  0  0  0  0
    1.0717   -1.2375    0.0000 C   0  0  0  0  0  0  0  0  0  0  0  0
    1.0717   -0.4125    0.0000 C   0  0  0  0  0  0  0  0  0  0  0  0
    0.3572    0.0000    0.0000 C   0  0  0  0  0  0  0  0  0  0  0  0
   -0.3572   -0.4125    0.0000 N   0  0  0  0  0  0  0  0  0  0  0  0
   -0.3572   -1.2375    0.0000 C   0  0  0  0  0  0  0  0  0  0  0  0
   -1.0717   -1.6500    0.0000 C   0  0  0  0  0  0  0  0  0  0  0  0
   -1.7862   -1.2375    0.0000 N   0  0  0  0  0  0  0  0  0  0  0  0
   -2.5006   -1.6500    0.0000 C   0  0  0  0  0  0  0  0  0  0  0  0
   -3.2151   -1.2375    0.0000 N   0  0  0  0  0  0  0  0  0  0  0  0
   -3.9296   -1.6500    0.0000 C   0  0  0  0  0  0  0  0  0  0  0  0
   -3.9296   -2.4750    0.0000 C   0  0  0  0  0  0  0  0  0  0  0  0
   -3.2151   -2.8875    0.0000 C   0  0  0  0  0  0  0  0  0  0  0  0
   -2.5006   -2.4750    0.0000 C   0  0  0  0  0  0  0  0  0  0  0  0
   -1.7862   -2.8875    0.0000 C   0  0  0  0  0  0  0  0  0  0  0  0
   -1.0717   -3.3000    0.0000 N   0  0  0  0  0  0  0  0  0  0  0  0
   -1.7862   -0.4125    0.0000 C   0  0  0  0  0  0  0  0  0  0  0  0
   -1.0717    0.0000    0.0000 C   0  0  0  0  0  0  0  0  0  0  0  0
    0.3572    0.8250    0.0000 O   0  0  0  0  0  0  0  0  0  0  0  0
    1.7862    0.0000    0.0000 C   0  0  0  0  0  0  0  0  0  0  0  0
    2.5006    1.2375    0.0000 C   0  0  0  0  0  0  0  0  0  0  0  0
    1.7862    0.8250    0.0000 C   0  0  0  0  0  0  0  0  0  0  0  0
    1.0717    1.2375    0.0000 C   0  0  0  0  0  0  0  0  0  0  0  0
    1.0717    2.0625    0.0000 C   0  0  0  0  0  0  0  0  0  0  0  0
    1.7862    2.4750    0.0000 C   0  0  0  0  0  0  0  0  0  0  0  0
    2.5006    2.0625    0.0000 C   0  0  0  0  0  0  0  0  0  0  0  0
  1  2  2  0      
  2  3  1  0      
  3  4  1  0      
  4  5  2  0      
  5  6  1  0      
  6  7  1  0      
  7  8  2  0      
  8  9  1  0      
  9 10  2  0      
 10 11  1  0      
 11 12  1  0      
 12 13  1  0      
 13 14  1  0      
 14 15  1  0      
 15 16  1  0      
 16 17  1  0      
 17 18  2  0      
 18 19  1  0      
 19 20  2  0      
 20 21  1  0      
 21 22  2  0      
 17 22  1  0      
 22 23  1  0      
 23 24  3  0      
 16 25  1  0      
 25 26  1  0      
 13 26  1  0      
 12 27  2  0      
 11 28  2  0      
  7 28  1  0      
  5 29  1  0      
 29 30  2  0      
 30 31  1  0      
 31 32  2  0      
 32 33  1  0      
 33 34  2  0      
 29 34  1  0      
  2 34  1  0      
M  END

>  <RackCode>
HYCPK72334

>  <Cat. No.>
HY-119653

>  <Product Name>
AZ9482

>  <ROW>
H

>  <COLUMN>
5

>  <CAS No.>
1825345-33-2

>  <MWt>
450.49

>  <Target>
PARP

>  <Saltdate>


>  <Smiles>
O=C1NN=C(C2=CC=CC=C21)CC3=CC=CC(C(N4CCN(CC4)C5=NC=CC=C5C#N)=O)=C3

>  <Solvent>
DMSO Solution

>  <Batch No.>
91543

>  <Quantity>
10mM  * 50uL

>  <Pathway>
Cell Cycle/DNA Damage; Epigenetics

>  <Synonyms>


>  <Formula>
C26H22N6O2

>  <Research_Area>
Cancer

>  <Clinical_Information>
No Development Reported

>  <SUPPLIER>
MedChemExpress

$$$$
Untitled Document
  ChemDraw10211610502D

 32 35  0  0  0  0  0  0  0  0999 V2000
   -3.9347   -1.6434    0.0000 O   0  0  0  0  0  0  0  0  0  0  0  0
   -3.1810   -1.9790    0.0000 C   0  0  0  0  0  0  0  0  0  0  0  0
   -3.2673   -2.7995    0.0000 C   0  0  0  0  0  0  0  0  0  0  0  0
   -4.0742   -2.9710    0.0000 C   0  0  0  0  0  0  0  0  0  0  0  0
   -4.4867   -2.2565    0.0000 C   0  0  0  0  0  0  0  0  0  0  0  0
   -2.4665   -1.5665    0.0000 C   0  0  0  0  0  0  0  0  0  0  0  0
   -2.4665   -0.7415    0.0000 O   0  0  0  0  0  0  0  0  0  0  0  0
   -1.7521   -1.9790    0.0000 N   0  0  0  0  0  0  0  0  0  0  0  0
   -1.0376   -1.5665    0.0000 C   0  0  0  0  0  0  0  0  0  0  0  0
   -1.0376   -0.7415    0.0000 C   0  0  0  0  0  0  0  0  0  0  0  0
   -0.3231   -0.3290    0.0000 C   0  0  0  0  0  0  0  0  0  0  0  0
    0.3913   -0.7415    0.0000 C   0  0  0  0  0  0  0  0  0  0  0  0
    0.3913   -1.5665    0.0000 C   0  0  0  0  0  0  0  0  0  0  0  0
   -0.3231   -1.9790    0.0000 C   0  0  0  0  0  0  0  0  0  0  0  0
    1.1058   -0.3290    0.0000 C   0  0  0  0  0  0  0  0  0  0  0  0
    1.1058    0.4960    0.0000 O   0  0  0  0  0  0  0  0  0  0  0  0
    1.8203   -0.7415    0.0000 N   0  0  0  0  0  0  0  0  0  0  0  0
    2.5348   -0.3290    0.0000 C   0  0  0  0  0  0  0  0  0  0  0  0
    3.2492   -2.1704    0.0000 C   0  0  0  0  0  0  0  0  0  0  0  0
    2.8367   -1.4560    0.0000 C   0  0  0  0  0  0  0  0  0  0  0  0
    3.2492   -0.7415    0.0000 C   0  0  0  0  0  0  0  0  0  0  0  0
    4.0742   -0.7415    0.0000 C   0  0  0  0  0  0  0  0  0  0  0  0
    4.4867   -1.4560    0.0000 C   0  0  0  0  0  0  0  0  0  0  0  0
    4.0742   -2.1704    0.0000 O   0  0  0  0  0  0  0  0  0  0  0  0
    3.2492    0.0835    0.0000 C   0  0  0  0  0  0  0  0  0  0  0  0
    3.9637    0.4960    0.0000 C   0  0  0  0  0  0  0  0  0  0  0  0
    3.9637    1.3210    0.0000 C   0  0  0  0  0  0  0  0  0  0  0  0
    3.2492    1.7335    0.0000 C   0  0  0  0  0  0  0  0  0  0  0  0
    2.5348    1.3210    0.0000 C   0  0  0  0  0  0  0  0  0  0  0  0
    2.5348    0.4960    0.0000 C   0  0  0  0  0  0  0  0  0  0  0  0
    3.2492    2.5585    0.0000 O   0  0  0  0  0  0  0  0  0  0  0  0
    3.9637    2.9710    0.0000 C   0  0  0  0  0  0  0  0  0  0  0  0
  1  2  1  0      
  2  3  2  0      
  3  4  1  0      
  4  5  2  0      
  1  5  1  0      
  6  7  2  0      
  6  8  1  0      
  2  6  1  0      
  9 10  1  0      
 10 11  2  0      
 11 12  1  0      
 12 13  2  0      
 13 14  1  0      
  9 14  2  0      
 15 16  2  0      
 19 20  1  0      
 20 21  1  0      
 21 22  1  0      
 22 23  1  0      
 23 24  1  0      
 19 24  1  0      
 25 26  1  0      
 26 27  2  0      
 27 28  1  0      
 28 29  2  0      
 29 30  1  0      
 25 30  2  0      
 31 32  1  0      
 28 31  1  0      
 21 25  1  0      
 18 21  1  0      
 17 18  1  0      
 15 17  1  0      
 12 15  1  0      
  8  9  1  0      
M  END

>  <RackCode>
HYCPK72334

>  <Cat. No.>
HY-13968

>  <Product Name>
JW 55

>  <ROW>
I

>  <COLUMN>
5

>  <CAS No.>
664993-53-7

>  <MWt>
434.48

>  <Target>
PARP

>  <Saltdate>
Free Base

>  <Smiles>
O=C(C1=CC=CO1)NC2=CC=C(C(NCC3(C4=CC=C(OC)C=C4)CCOCC3)=O)C=C2

>  <Solvent>
DMSO Solution

>  <Batch No.>
10331

>  <Quantity>
10mM  * 50uL

>  <Pathway>
Cell Cycle/DNA Damage; Epigenetics

>  <Synonyms>


>  <Formula>
C25H26N2O5

>  <Research_Area>
Cancer

>  <Clinical_Information>
No Development Reported

>  <SUPPLIER>
MedChemExpress

$$$$
Untitled Document
  ChemDraw10201715452D

 18 18  0  0  0  0  0  0  0  0999 V2000
   -0.2150   -1.6457    0.0000 Cl  0  0  0  0  0  0  0  0  0  0  0  0
    1.2889   -1.6457    0.0000 Cl  0  0  0  0  0  0  0  0  0  0  0  0
    2.9131    1.2332    0.0000 N   0  0  0  0  0  0  0  0  0  0  0  0
    2.9131    0.4082    0.0000 C   0  0  0  0  0  0  0  0  0  0  0  0
    2.1987   -0.0043    0.0000 C   0  0  0  0  0  0  0  0  0  0  0  0
    1.4842    0.4082    0.0000 C   0  0  0  0  0  0  0  0  0  0  0  0
    1.4842    1.2332    0.0000 C   0  0  0  0  0  0  0  0  0  0  0  0
    2.1987    1.6457    0.0000 C   0  0  0  0  0  0  0  0  0  0  0  0
    0.7697   -0.0043    0.0000 N   0  0  0  0  0  0  0  0  0  0  0  0
    0.0553    0.4082    0.0000 C   0  0  0  0  0  0  0  0  0  0  0  0
   -0.7697    0.4082    0.0000 C   0  0  0  0  0  0  0  0  0  0  0  0
   -0.3572    1.1226    0.0000 C   0  0  0  0  0  0  0  0  0  0  0  0
   -1.4842   -0.0043    0.0000 C   0  0  0  0  0  0  0  0  0  0  0  0
   -1.4842   -0.8294    0.0000 C   0  0  0  0  0  0  0  0  0  0  0  0
   -2.1987   -1.2419    0.0000 C   0  0  0  0  0  0  0  0  0  0  0  0
   -2.9131   -0.8294    0.0000 C   0  0  0  0  0  0  0  0  0  0  0  0
   -2.9131   -0.0043    0.0000 C   0  0  0  0  0  0  0  0  0  0  0  0
   -2.1987    0.4082    0.0000 C   0  0  0  0  0  0  0  0  0  0  0  0
  3  4  1  0      
  4  5  1  0      
  5  6  1  0      
  6  7  1  0      
  7  8  1  0      
  3  8  1  0      
  6  9  1  0      
 10 11  1  0      
 11 12  1  0      
 10 12  1  0      
 13 14  1  0      
 14 15  2  0      
 15 16  1  0      
 16 17  2  0      
 17 18  1  0      
 13 18  2  0      
 11 13  1  6      
 10  9  1  1      
M  STY  1   1 SUP
M  SLB  1   1   1
M  SAL   1  1   1
M  SMT   1 H-Cl
M  STY  1   2 SUP
M  SLB  1   2   2
M  SAL   2  1   2
M  SMT   2 H-Cl
M  END

>  <RackCode>
HYCPK72334

>  <Cat. No.>
HY-100546A

>  <Product Name>
GSK-LSD1 (dihydrochloride)

>  <ROW>
J

>  <COLUMN>
5

>  <CAS No.>
2102933-95-7

>  <MWt>
289.24

>  <Target>
Histone Demethylase; Monoamine Oxidase

>  <Saltdate>
Hydrochloride

>  <Smiles>
C1(N[C@H]2[C@H](C3=CC=CC=C3)C2)CCNCC1.Cl.Cl

>  <Solvent>
DMSO Solution

>  <Batch No.>
103943

>  <Quantity>
10mM  * 50uL

>  <Pathway>
Epigenetics; Neuronal Signaling

>  <Synonyms>


>  <Formula>
C14H22Cl2N2

>  <Research_Area>
Cancer

>  <Clinical_Information>
No Development Reported

>  <SUPPLIER>
MedChemExpress

$$$$
Untitled Document
  ChemDraw09062215362D

 28 30  0  0  0  0  0  0  0  0999 V2000
    5.8346    0.3506    0.0000 N   0  0  0  0  0  0  0  0  0  0  0  0
    5.1203    0.7631    0.0000 C   0  0  0  0  0  0  0  0  0  0  0  0
    4.4058    1.1756    0.0000 C   0  0  0  0  0  0  0  0  0  0  0  0
    3.6913    0.7631    0.0000 N   0  0  0  0  0  0  0  0  0  0  0  0
    2.9769    1.1756    0.0000 C   0  0  0  0  0  0  0  0  0  0  0  0
    2.9769    2.0005    0.0000 O   0  0  0  0  0  0  0  0  0  0  0  0
    2.2624    0.7631    0.0000 C   0  0  0  0  0  0  0  0  0  0  0  0
    2.2624   -0.0619    0.0000 C   0  0  0  0  0  0  0  0  0  0  0  0
    1.5480   -0.4744    0.0000 C   0  0  0  0  0  0  0  0  0  0  0  0
    0.8335   -0.0619    0.0000 C   0  0  0  0  0  0  0  0  0  0  0  0
    0.8335    0.7631    0.0000 C   0  0  0  0  0  0  0  0  0  0  0  0
    1.5480    1.1756    0.0000 C   0  0  0  0  0  0  0  0  0  0  0  0
    0.1191   -0.4744    0.0000 C   0  0  0  0  0  0  0  0  0  0  0  0
   -0.5954   -0.0619    0.0000 N   0  0  0  0  0  0  0  0  0  0  0  0
   -1.3099   -0.4744    0.0000 C   0  0  0  0  0  0  0  0  0  0  0  0
   -1.3099   -1.2994    0.0000 N   0  0  0  0  0  0  0  0  0  0  0  0
   -0.5954   -1.7119    0.0000 C   0  0  0  0  0  0  0  0  0  0  0  0
    0.1191   -1.2994    0.0000 C   0  0  0  0  0  0  0  0  0  0  0  0
    0.8335   -1.7119    0.0000 C   0  0  0  0  0  0  0  0  0  0  0  0
   -2.0242   -0.0619    0.0000 N   0  0  0  0  0  0  0  0  0  0  0  0
   -2.7387   -0.4744    0.0000 C   0  0  0  0  0  0  0  0  0  0  0  0
   -2.8249   -1.2949    0.0000 C   0  0  0  0  0  0  0  0  0  0  0  0
   -3.6319   -1.4664    0.0000 N   0  0  0  0  0  0  0  0  0  0  0  0
   -4.0444   -0.7519    0.0000 N   0  0  0  0  0  0  0  0  0  0  0  0
   -3.4924   -0.1389    0.0000 C   0  0  0  0  0  0  0  0  0  0  0  0
   -4.8649   -0.6657    0.0000 C   0  0  0  0  0  0  0  0  0  0  0  0
   -5.3498   -1.3332    0.0000 C   0  0  0  0  0  0  0  0  0  0  0  0
   -5.8346   -2.0005    0.0000 N   0  0  0  0  0  0  0  0  0  0  0  0
  1  2  3  0      
  2  3  1  0      
  3  4  1  0      
  4  5  1  0      
  5  6  2  0      
  5  7  1  0      
  7  8  1  0      
  8  9  2  0      
  9 10  1  0      
 10 11  2  0      
 11 12  1  0      
  7 12  2  0      
 10 13  1  0      
 13 14  2  0      
 14 15  1  0      
 15 16  2  0      
 16 17  1  0      
 17 18  2  0      
 13 18  1  0      
 18 19  1  0      
 15 20  1  0      
 20 21  1  0      
 21 22  1  0      
 22 23  2  0      
 23 24  1  0      
 24 25  1  0      
 21 25  2  0      
 24 26  1  0      
 26 27  1  0      
 27 28  3  0      
M  END

>  <RackCode>
HYCPK72334

>  <Cat. No.>
HY-148060

>  <Product Name>
JAK-IN-21

>  <ROW>
K

>  <COLUMN>
5

>  <CAS No.>
2445499-20-5

>  <MWt>
372.38

>  <Target>
JAK

>  <Saltdate>


>  <Smiles>
N#CCNC(C1=CC=C(C2=NC(NC3=CN(CC#N)N=C3)=NC=C2C)C=C1)=O

>  <Solvent>
DMSO Solution

>  <Batch No.>
344498

>  <Quantity>
10mM  * 50uL

>  <Pathway>
Epigenetics; JAK/STAT Signaling; Protein Tyrosine Kinase/RTK; Stem Cell/Wnt

>  <Synonyms>


>  <Formula>
C19H16N8O

>  <Research_Area>
Cancer

>  <Clinical_Information>
No Development Reported

>  <SUPPLIER>
MedChemExpress

$$$$
Untitled Document
  ChemDraw08112014032D

 35 36  0  0  0  0  0  0  0  0999 V2000
    2.1434   -2.6812    0.0000 C   0  0  0  0  0  0  0  0  0  0  0  0
    1.4289   -3.0938    0.0000 N   0  0  0  0  0  0  0  0  0  0  0  0
    2.1434   -1.8563    0.0000 O   0  0  0  0  0  0  0  0  0  0  0  0
    2.8579   -3.0938    0.0000 O   0  0  0  0  0  0  0  0  0  0  0  0
    0.7145   -2.6812    0.0000 C   0  0  0  0  0  0  0  0  0  0  0  0
   -0.0000   -3.0938    0.0000 C   0  0  0  0  0  0  0  0  0  0  0  0
   -0.7145   -2.6812    0.0000 C   0  0  0  0  0  0  0  0  0  0  0  0
   -1.4289   -3.0938    0.0000 C   0  0  0  0  0  0  0  0  0  0  0  0
   -2.1434   -2.6812    0.0000 C   0  0  0  0  0  0  0  0  0  0  0  0
    0.7145   -1.8563    0.0000 C   0  0  0  0  0  0  0  0  0  0  0  0
   -0.0000   -1.4437    0.0000 O   0  0  0  0  0  0  0  0  0  0  0  0
    1.4289   -1.4437    0.0000 N   0  0  0  0  0  0  0  0  0  0  0  0
    2.8579    1.8563    0.0000 C   0  0  0  0  0  0  0  0  0  0  0  0
    2.1434    2.2687    0.0000 C   0  0  0  0  0  0  0  0  0  0  0  0
    1.4289    1.8563    0.0000 C   0  0  0  0  0  0  0  0  0  0  0  0
    1.4289    1.0313    0.0000 C   0  0  0  0  0  0  0  0  0  0  0  0
    2.1434    0.6187    0.0000 C   0  0  0  0  0  0  0  0  0  0  0  0
    2.8579    1.0313    0.0000 O   0  0  0  0  0  0  0  0  0  0  0  0
    2.1434   -0.2062    0.0000 C   0  0  0  0  0  0  0  0  0  0  0  0
    1.4289   -0.6187    0.0000 C   0  0  0  0  0  0  0  0  0  0  0  0
    0.7145   -0.2062    0.0000 C   0  0  0  0  0  0  0  0  0  0  0  0
    0.7145    0.6187    0.0000 C   0  0  0  0  0  0  0  0  0  0  0  0
    0.7145    2.2687    0.0000 C   0  0  0  0  0  0  0  0  0  0  0  0
   -0.0000    2.6812    0.0000 F   0  0  0  0  0  0  0  0  0  0  0  0
    0.7145    3.0938    0.0000 F   0  0  0  0  0  0  0  0  0  0  0  0
   -0.0000    1.8563    0.0000 F   0  0  0  0  0  0  0  0  0  0  0  0
    3.5724    2.2687    0.0000 O   0  0  0  0  0  0  0  0  0  0  0  0
   -2.8579   -3.0938    0.0000 N   0  0  0  0  0  0  0  0  0  0  0  0
   -3.5724   -2.6812    0.0000 C   0  0  0  0  0  0  0  0  0  0  0  0
   -3.5724   -1.8563    0.0000 O   0  0  0  0  0  0  0  0  0  0  0  0
   -4.2869   -3.0938    0.0000 C   0  0  0  0  0  0  0  0  0  0  0  0
    3.5724   -2.6812    0.0000 C   0  0  0  0  0  0  0  0  0  0  0  0
    4.2869   -3.0938    0.0000 C   0  0  0  0  0  0  0  0  0  0  0  0
    4.2869   -2.2687    0.0000 C   0  0  0  0  0  0  0  0  0  0  0  0
    3.5724   -1.8563    0.0000 C   0  0  0  0  0  0  0  0  0  0  0  0
  1  2  1  0      
  1  3  2  0      
  1  4  1  0      
  5  6  1  0      
  6  7  1  0      
  7  8  1  0      
  8  9  1  0      
 10 11  2  0      
 13 14  1  0      
 14 15  2  0      
 15 16  1  0      
 16 17  1  0      
 17 18  1  0      
 13 18  1  0      
 19 20  1  0      
 20 21  2  0      
 21 22  1  0      
 22 16  2  0      
 19 17  2  0      
 23 24  1  0      
 23 25  1  0      
 23 26  1  0      
 15 23  1  0      
 13 27  2  0      
 12 20  1  0      
 10 12  1  0      
  5 10  1  1      
 29 30  2  0      
 29 31  1  0      
 28 29  1  0      
  9 28  1  0      
  2  5  1  0      
 32 33  1  0      
 32 34  1  0      
 32 35  1  0      
  4 32  1  0      
M  END

>  <RackCode>
HYCPK72334

>  <Cat. No.>
HY-136859

>  <Product Name>
BATCP

>  <ROW>
L

>  <COLUMN>
5

>  <CAS No.>
787549-23-9

>  <MWt>
499.48

>  <Target>
HDAC

>  <Saltdate>


>  <Smiles>
O=C(OC(C)(C)C)N[C@H](C(NC1=CC=C(C(O2)=C1)C(C(F)(F)F)=CC2=O)=O)CCCCNC(C)=O

>  <Solvent>
DMSO Solution

>  <Batch No.>
322165

>  <Quantity>
10mM  * 50uL

>  <Pathway>
Cell Cycle/DNA Damage; Epigenetics

>  <Synonyms>


>  <Formula>
C23H28F3N3O6

>  <Research_Area>
Cancer

>  <Clinical_Information>
No Development Reported

>  <SUPPLIER>
MedChemExpress

$$$$
Untitled Document
  ChemDraw11081616452D

 25 27  0  0  0  0  0  0  0  0999 V2000
   -0.0000    0.4125    0.0000 C   0  0  0  0  0  0  0  0  0  0  0  0
    0.7145    0.0000    0.0000 C   0  0  0  0  0  0  0  0  0  0  0  0
    0.7145   -0.8250    0.0000 C   0  0  0  0  0  0  0  0  0  0  0  0
   -0.0000   -1.2375    0.0000 C   0  0  0  0  0  0  0  0  0  0  0  0
   -0.7145   -0.8250    0.0000 C   0  0  0  0  0  0  0  0  0  0  0  0
   -0.7145    0.0000    0.0000 C   0  0  0  0  0  0  0  0  0  0  0  0
   -0.0000    1.2375    0.0000 O   0  0  0  0  0  0  0  0  0  0  0  0
   -1.4289    0.4125    0.0000 C   0  0  0  0  0  0  0  0  0  0  0  0
   -2.1433    0.0000    0.0000 C   0  0  0  0  0  0  0  0  0  0  0  0
   -2.8578    0.4125    0.0000 C   0  0  0  0  0  0  0  0  0  0  0  0
   -3.5723    0.0000    0.0000 C   0  0  0  0  0  0  0  0  0  0  0  0
   -3.5723   -0.8250    0.0000 C   0  0  0  0  0  0  0  0  0  0  0  0
   -2.8578   -1.2375    0.0000 C   0  0  0  0  0  0  0  0  0  0  0  0
   -2.1433   -0.8250    0.0000 C   0  0  0  0  0  0  0  0  0  0  0  0
   -4.2867   -1.2375    0.0000 O   0  0  0  0  0  0  0  0  0  0  0  0
   -4.2867    0.4125    0.0000 Br  0  0  0  0  0  0  0  0  0  0  0  0
    1.4289    0.4125    0.0000 C   0  0  0  0  0  0  0  0  0  0  0  0
    2.1433    0.0000    0.0000 C   0  0  0  0  0  0  0  0  0  0  0  0
    2.8578    0.4125    0.0000 C   0  0  0  0  0  0  0  0  0  0  0  0
    3.5723    0.0000    0.0000 C   0  0  0  0  0  0  0  0  0  0  0  0
    3.5723   -0.8250    0.0000 C   0  0  0  0  0  0  0  0  0  0  0  0
    2.8578   -1.2375    0.0000 C   0  0  0  0  0  0  0  0  0  0  0  0
    2.1433   -0.8250    0.0000 C   0  0  0  0  0  0  0  0  0  0  0  0
    4.2867   -1.2375    0.0000 O   0  0  0  0  0  0  0  0  0  0  0  0
    4.2867    0.4125    0.0000 Br  0  0  0  0  0  0  0  0  0  0  0  0
  1  2  1  0      
  2  3  1  0      
  3  4  1  0      
  4  5  1  0      
  5  6  1  0      
  1  6  1  0      
  1  7  2  0      
  9 10  1  0      
 10 11  2  0      
 11 12  1  0      
 12 13  2  0      
 13 14  1  0      
  9 14  2  0      
 12 15  1  0      
 11 16  1  0      
  8  9  1  0      
  6  8  2  0      
 18 19  1  0      
 19 20  2  0      
 20 21  1  0      
 21 22  2  0      
 22 23  1  0      
 18 23  2  0      
 21 24  1  0      
 20 25  1  0      
 17 18  1  0      
  2 17  2  0      
M  END

>  <RackCode>
HYCPK72334

>  <Cat. No.>
HY-100734

>  <Product Name>
Histone Acetyltransferase Inhibitor II

>  <ROW>
M

>  <COLUMN>
5

>  <CAS No.>
932749-62-7

>  <MWt>
464.15

>  <Target>
Histone Acetyltransferase

>  <Saltdate>
Free Base

>  <Smiles>
O=C1/C(CCC/C1=C\C2=CC=C(O)C(Br)=C2)=C/C3=CC=C(O)C(Br)=C3

>  <Solvent>
DMSO Solution

>  <Batch No.>
22228

>  <Quantity>
10mM  * 50uL

>  <Pathway>
Epigenetics

>  <Synonyms>


>  <Formula>
C20H16Br2O3

>  <Research_Area>
Cancer

>  <Clinical_Information>
No Development Reported

>  <SUPPLIER>
MedChemExpress

$$$$
Untitled Document
  ChemDraw12162116232D

 27 30  0  0  0  0  0  0  0  0999 V2000
   -0.7145   -0.7697    0.0000 C   0  0  0  0  0  0  0  0  0  0  0  0
   -1.4289   -0.3572    0.0000 N   0  0  0  0  0  0  0  0  0  0  0  0
   -2.1433   -0.7697    0.0000 C   0  0  0  0  0  0  0  0  0  0  0  0
   -2.1433   -1.5947    0.0000 C   0  0  0  0  0  0  0  0  0  0  0  0
   -1.4289   -2.0071    0.0000 C   0  0  0  0  0  0  0  0  0  0  0  0
   -0.7145   -1.5947    0.0000 N   0  0  0  0  0  0  0  0  0  0  0  0
   -2.8578   -2.0071    0.0000 C   0  0  0  0  0  0  0  0  0  0  0  0
   -2.8578   -0.3572    0.0000 C   0  0  0  0  0  0  0  0  0  0  0  0
   -3.5723   -0.7697    0.0000 C   0  0  0  0  0  0  0  0  0  0  0  0
   -3.5723   -1.5947    0.0000 S   0  0  0  0  0  0  0  0  0  0  0  0
   -1.4289   -2.8321    0.0000 O   0  0  0  0  0  0  0  0  0  0  0  0
    0.0000   -0.3572    0.0000 N   0  0  0  0  0  0  0  0  0  0  0  0
    0.0000    0.4678    0.0000 C   0  0  0  0  0  0  0  0  0  0  0  0
    0.7145    0.8803    0.0000 C   0  0  0  0  0  0  0  0  0  0  0  0
    1.4289    0.4678    0.0000 N   0  0  0  0  0  0  0  0  0  0  0  0
    1.4289   -0.3572    0.0000 C   0  0  0  0  0  0  0  0  0  0  0  0
    0.7145   -0.7697    0.0000 C   0  0  0  0  0  0  0  0  0  0  0  0
    2.1433    0.8803    0.0000 C   0  0  0  0  0  0  0  0  0  0  0  0
    2.1433    1.7052    0.0000 C   0  0  0  0  0  0  0  0  0  0  0  0
    2.8578    2.1177    0.0000 C   0  0  0  0  0  0  0  0  0  0  0  0
    3.5723    1.7052    0.0000 C   0  0  0  0  0  0  0  0  0  0  0  0
    3.5723    0.8803    0.0000 C   0  0  0  0  0  0  0  0  0  0  0  0
    2.8578    0.4678    0.0000 C   0  0  0  0  0  0  0  0  0  0  0  0
    1.4289    2.1177    0.0000 S   0  0  0  0  0  0  0  0  0  0  0  0
    1.8413    2.8321    0.0000 O   0  0  0  0  0  0  0  0  0  0  0  0
    1.0164    1.4033    0.0000 O   0  0  0  0  0  0  0  0  0  0  0  0
    0.7145    2.5302    0.0000 C   0  0  0  0  0  0  0  0  0  0  0  0
  1  2  2  0      
  2  3  1  0      
  3  4  2  0      
  4  5  1  0      
  5  6  1  0      
  1  6  1  0      
  8  9  1  0      
  9 10  1  0      
  7 10  1  0      
  3  8  1  0      
  4  7  1  0      
  5 11  2  0      
 12 13  1  0      
 13 14  1  0      
 14 15  1  0      
 15 16  1  0      
 16 17  1  0      
 12 17  1  0      
 18 19  1  0      
 19 20  2  0      
 20 21  1  0      
 21 22  2  0      
 22 23  1  0      
 18 23  2  0      
 24 25  2  0      
 24 26  2  0      
 24 27  1  0      
 19 24  1  0      
 15 18  1  0      
  1 12  1  0      
M  END

>  <RackCode>
HYCPK72334

>  <Cat. No.>
HY-117705

>  <Product Name>
G244-LM

>  <ROW>
N

>  <COLUMN>
5

>  <CAS No.>
1563007-08-8

>  <MWt>
406.52

>  <Target>
PARP

>  <Saltdate>


>  <Smiles>
O=C1C(CSCC2)=C2N=C(N3CCN(C4=CC=CC=C4S(=O)(C)=O)CC3)N1

>  <Solvent>
DMSO Solution

>  <Batch No.>
212118

>  <Quantity>
10mM  * 50uL

>  <Pathway>
Cell Cycle/DNA Damage; Epigenetics

>  <Synonyms>


>  <Formula>
C18H22N4O3S2

>  <Research_Area>
Cancer

>  <Clinical_Information>
No Development Reported

>  <SUPPLIER>
MedChemExpress

$$$$
Untitled Document
  ChemDraw01131616402D

 22 22  0  0  0  0  0  0  0  0999 V2000
   -1.7861   -0.8250    0.0000 C   0  0  0  0  0  0  0  0  0  0  0  0
   -2.5005   -0.4125    0.0000 C   0  0  0  0  0  0  0  0  0  0  0  0
   -2.5005    0.4125    0.0000 C   0  0  0  0  0  0  0  0  0  0  0  0
   -3.2150    0.8250    0.0000 C   0  0  0  0  0  0  0  0  0  0  0  0
   -3.9295    0.4125    0.0000 C   0  0  0  0  0  0  0  0  0  0  0  0
   -3.9295   -0.4125    0.0000 C   0  0  0  0  0  0  0  0  0  0  0  0
   -3.2150   -0.8250    0.0000 C   0  0  0  0  0  0  0  0  0  0  0  0
   -1.7861   -1.6500    0.0000 O   0  0  0  0  0  0  0  0  0  0  0  0
   -1.0717   -0.4125    0.0000 N   0  0  0  0  0  0  0  0  0  0  0  0
   -0.3572   -0.8250    0.0000 C   0  0  0  0  0  0  0  0  0  0  0  0
    0.3572   -0.4125    0.0000 C   0  0  0  0  0  0  0  0  0  0  0  0
    1.0717   -0.8250    0.0000 C   0  0  0  0  0  0  0  0  0  0  0  0
    1.7861   -0.4125    0.0000 C   0  0  0  0  0  0  0  0  0  0  0  0
    2.5005   -0.8250    0.0000 C   0  0  0  0  0  0  0  0  0  0  0  0
    3.2150   -0.4125    0.0000 C   0  0  0  0  0  0  0  0  0  0  0  0
    3.9295   -0.8250    0.0000 C   0  0  0  0  0  0  0  0  0  0  0  0
    3.9295   -1.6500    0.0000 O   0  0  0  0  0  0  0  0  0  0  0  0
    4.6440   -0.4125    0.0000 N   0  0  0  0  0  0  0  0  0  0  0  0
    5.3583   -0.8250    0.0000 O   0  0  0  0  0  0  0  0  0  0  0  0
   -4.6440    0.8250    0.0000 N   0  0  0  0  0  0  0  0  0  0  0  0
   -4.6440    1.6500    0.0000 C   0  0  0  0  0  0  0  0  0  0  0  0
   -5.3583    0.4125    0.0000 C   0  0  0  0  0  0  0  0  0  0  0  0
  1  2  1  0      
  2  3  1  0      
  3  4  2  0      
  4  5  1  0      
  5  6  2  0      
  6  7  1  0      
  2  7  2  0      
  1  8  2  0      
  1  9  1  0      
 10 11  1  0      
 11 12  1  0      
 12 13  1  0      
 13 14  1  0      
 14 15  1  0      
 15 16  1  0      
 16 17  2  0      
 18 19  1  0      
 16 18  1  0      
  9 10  1  0      
 20 21  1  0      
 20 22  1  0      
  5 20  1  0      
M  END

>  <RackCode>
HYCPK72334

>  <Cat. No.>
HY-13506

>  <Product Name>
M344

>  <ROW>
O

>  <COLUMN>
5

>  <CAS No.>
251456-60-7

>  <MWt>
307.39

>  <Target>
HDAC

>  <Saltdate>
Free Base

>  <Smiles>
O=C(NCCCCCCC(NO)=O)C1=CC=C(N(C)C)C=C1

>  <Solvent>
DMSO Solution

>  <Batch No.>
08541

>  <Quantity>
10mM  * 50uL

>  <Pathway>
Cell Cycle/DNA Damage; Epigenetics

>  <Synonyms>
D 237; MS 344

>  <Formula>
C16H25N3O3

>  <Research_Area>
Cancer

>  <Clinical_Information>
No Development Reported

>  <SUPPLIER>
MedChemExpress

$$$$
Untitled Document
  ChemDraw12302217122D

 68 70  0  0  0  0  0  0  0  0999 V2000
   -6.7102   -1.0313    0.0000 C   0  0  0  0  0  0  0  0  0  0  0  0
   -5.9957   -1.4437    0.0000 C   0  0  0  0  0  0  0  0  0  0  0  0
   -5.2813   -1.0313    0.0000 N   0  0  0  0  0  0  0  0  0  0  0  0
   -4.5667   -1.4437    0.0000 C   0  0  0  0  0  0  0  0  0  0  0  0
   -3.8522   -1.0313    0.0000 C   0  0  0  0  0  0  0  0  0  0  0  0
   -3.1378   -1.4437    0.0000 N   0  0  0  0  0  0  0  0  0  0  0  0
   -2.4233   -1.0313    0.0000 C   0  0  0  0  0  0  0  0  0  0  0  0
   -1.7088   -1.4437    0.0000 C   0  0  0  0  0  0  0  0  0  0  0  0
   -0.9942   -1.0313    0.0000 N   0  0  0  0  0  0  0  0  0  0  0  0
   -0.2798   -1.4437    0.0000 C   0  0  0  0  0  0  0  0  0  0  0  0
    0.4347   -1.0313    0.0000 C   0  0  0  0  0  0  0  0  0  0  0  0
    1.1492   -1.4437    0.0000 N   0  0  0  0  0  0  0  0  0  0  0  0
    1.8637   -1.0313    0.0000 C   0  0  0  0  0  0  0  0  0  0  0  0
    2.5782   -1.4437    0.0000 C   0  0  0  0  0  0  0  0  0  0  0  0
    3.2927   -1.0313    0.0000 N   0  0  0  0  0  0  0  0  0  0  0  0
    4.0072   -1.4437    0.0000 C   0  0  0  0  0  0  0  0  0  0  0  0
    4.7216   -1.0313    0.0000 C   0  0  0  0  0  0  0  0  0  0  0  0
    5.4362   -1.4437    0.0000 O   0  0  0  0  0  0  0  0  0  0  0  0
    6.1507   -1.0313    0.0000 C   0  0  0  0  0  0  0  0  0  0  0  0
   -6.7102   -0.2062    0.0000 C   0  0  0  0  0  0  0  0  0  0  0  0
   -7.4247    0.2062    0.0000 C   0  0  0  0  0  0  0  0  0  0  0  0
   -8.1391   -0.2062    0.0000 C   0  0  0  0  0  0  0  0  0  0  0  0
   -8.1391   -1.0313    0.0000 C   0  0  0  0  0  0  0  0  0  0  0  0
   -7.4247   -1.4437    0.0000 C   0  0  0  0  0  0  0  0  0  0  0  0
   -8.8537    0.2062    0.0000 C   0  0  0  0  0  0  0  0  0  0  0  0
   -9.4371   -0.3771    0.0000 C   0  0  0  0  0  0  0  0  0  0  0  0
   -8.4412    0.9207    0.0000 C   0  0  0  0  0  0  0  0  0  0  0  0
   -9.5682    0.6187    0.0000 C   0  0  0  0  0  0  0  0  0  0  0  0
   -5.9957   -2.2688    0.0000 O   0  0  0  0  0  0  0  0  0  0  0  0
   -3.8522   -0.2062    0.0000 O   0  0  0  0  0  0  0  0  0  0  0  0
   -1.7088   -2.2688    0.0000 O   0  0  0  0  0  0  0  0  0  0  0  0
    0.4347   -0.2062    0.0000 O   0  0  0  0  0  0  0  0  0  0  0  0
    2.5782   -2.2688    0.0000 O   0  0  0  0  0  0  0  0  0  0  0  0
    4.7216   -0.2062    0.0000 O   0  0  0  0  0  0  0  0  0  0  0  0
   -4.5667   -2.2688    0.0000 C   0  0  0  0  0  0  0  0  0  0  0  0
   -0.2798   -2.2688    0.0000 C   0  0  0  0  0  0  0  0  0  0  0  0
    4.0072   -2.2688    0.0000 C   0  0  0  0  0  0  0  0  0  0  0  0
   -3.8522   -2.6813    0.0000 C   0  0  0  0  0  0  0  0  0  0  0  0
   -3.8522   -3.5063    0.0000 C   0  0  0  0  0  0  0  0  0  0  0  0
   -3.1378   -3.9188    0.0000 C   0  0  0  0  0  0  0  0  0  0  0  0
   -2.4233   -3.5063    0.0000 C   0  0  0  0  0  0  0  0  0  0  0  0
   -2.4233   -2.6813    0.0000 C   0  0  0  0  0  0  0  0  0  0  0  0
   -3.1378   -2.2688    0.0000 C   0  0  0  0  0  0  0  0  0  0  0  0
    0.4347   -2.6813    0.0000 C   0  0  0  0  0  0  0  0  0  0  0  0
    1.1492   -2.2688    0.0000 C   0  0  0  0  0  0  0  0  0  0  0  0
    0.4347   -3.5063    0.0000 C   0  0  0  0  0  0  0  0  0  0  0  0
    4.7216   -2.6813    0.0000 O   0  0  0  0  0  0  0  0  0  0  0  0
    1.8637   -0.2062    0.0000 C   0  0  0  0  0  0  0  0  0  0  0  0
    2.5782    0.2062    0.0000 C   0  0  0  0  0  0  0  0  0  0  0  0
    2.5782    1.0313    0.0000 C   0  0  0  0  0  0  0  0  0  0  0  0
    3.2927    1.4437    0.0000 C   0  0  0  0  0  0  0  0  0  0  0  0
    3.2927    2.2688    0.0000 N   0  0  0  0  0  0  0  0  0  0  0  0
    4.0072    2.6813    0.0000 C   0  0  0  0  0  0  0  0  0  0  0  0
    4.7216    2.2688    0.0000 C   0  0  0  0  0  0  0  0  0  0  0  0
    5.4362    2.6813    0.0000 C   0  0  0  0  0  0  0  0  0  0  0  0
    5.4362    3.5063    0.0000 C   0  0  0  0  0  0  0  0  0  0  0  0
    4.7216    3.9188    0.0000 C   0  0  0  0  0  0  0  0  0  0  0  0
    4.0072    3.5063    0.0000 C   0  0  0  0  0  0  0  0  0  0  0  0
    2.5782    2.6813    0.0000 C   0  0  0  0  0  0  0  0  0  0  0  0
   -2.4233   -0.2062    0.0000 C   0  0  0  0  0  0  0  0  0  0  0  0
    4.9352    3.1220    0.0000 C   0  0  0  0  0  0  0  0  0  0  0  0
    8.1416   -0.8285    0.0000 C   0  0  0  0  0  0  0  0  0  0  0  0
    8.8562   -0.4160    0.0000 C   0  0  0  0  0  0  0  0  0  0  0  0
    9.5682   -0.8270    0.0000 O   0  0  0  0  0  0  0  0  0  0  0  0
    8.8562    0.4062    0.0000 O   0  0  0  0  0  0  0  0  0  0  0  0
    7.4296   -0.4174    0.0000 F   0  0  0  0  0  0  0  0  0  0  0  0
    8.1416   -1.6506    0.0000 F   0  0  0  0  0  0  0  0  0  0  0  0
    7.4272   -1.2410    0.0000 F   0  0  0  0  0  0  0  0  0  0  0  0
  1  2  1  0      
  2  3  1  0      
  3  4  1  0      
  4  5  1  0      
  5  6  1  0      
  6  7  1  0      
  7  8  1  0      
  8  9  1  0      
  9 10  1  0      
 10 11  1  0      
 11 12  1  0      
 12 13  1  0      
 13 14  1  0      
 14 15  1  0      
 15 16  1  0      
 16 17  1  0      
 17 18  1  0      
 18 19  1  0      
  1 20  2  0      
 20 21  1  0      
 21 22  2  0      
 22 23  1  0      
 23 24  2  0      
 24  1  1  0      
 22 25  1  0      
 25 26  1  0      
 25 27  1  0      
 25 28  1  0      
  2 29  2  0      
  5 30  2  0      
  8 31  2  0      
 11 32  2  0      
 14 33  2  0      
 17 34  2  0      
  4 35  1  6      
 10 36  1  6      
 16 37  1  6      
 35 38  1  0      
 38 39  2  0      
 39 40  1  0      
 40 41  2  0      
 41 42  1  0      
 42 43  2  0      
 43 38  1  0      
 36 44  1  0      
 44 45  1  0      
 44 46  1  0      
 37 47  1  0      
 13 48  1  1      
 48 49  1  0      
 49 50  1  0      
 50 51  1  0      
 51 52  1  0      
 52 53  1  0      
 53 54  1  0      
 54 55  1  0      
 55 56  1  0      
 56 57  1  0      
 57 58  1  0      
 58 53  1  0      
 52 59  1  0      
  7 60  1  1      
 57 61  1  0      
 61 54  1  0      
 62 63  1  0      
 63 64  1  0      
 63 65  2  0      
 62 66  1  0      
 62 67  1  0      
 62 68  1  0      
M  END

>  <RackCode>
HYCPK72334

>  <Cat. No.>
HY-126327A

>  <Product Name>
UNC4976 (TFA)

>  <ROW>
P

>  <COLUMN>
5

>  <CAS No.>


>  <MWt>
961.12

>  <Target>
Histone Methyltransferase

>  <Saltdate>
Trifluoroacetate

>  <Smiles>
COC([C@H](CO)NC([C@H](CCCCN(C)C1C2CCC(C2)C1)NC([C@H](CC(C)C)NC([C@H](C)NC([C@H](CC3=CC=CC=C3)NC(C4=CC=C(C(C)(C)C)C=C4)=O)=O)=O)=O)=O)=O.OC(C(F)(F)F)=O

>  <Solvent>
DMSO Solution

>  <Batch No.>
284135

>  <Quantity>
10mM  * 50uL

>  <Pathway>
Epigenetics

>  <Synonyms>


>  <Formula>
C49H71F3N6O10

>  <Research_Area>
Cancer

>  <Clinical_Information>
No Development Reported

>  <SUPPLIER>
MedChemExpress

$$$$
Untitled Document
  ChemDraw10292114212D

 32 36  0  0  0  0  0  0  0  0999 V2000
    2.6999   -1.5555    0.0000 O   0  0  0  0  0  0  0  0  0  0  0  0
    1.9855   -1.9680    0.0000 C   0  0  0  0  0  0  0  0  0  0  0  0
    1.2710   -1.5555    0.0000 C   0  0  0  0  0  0  0  0  0  0  0  0
    1.2710   -0.7305    0.0000 C   0  0  0  0  0  0  0  0  0  0  0  0
    1.9855   -0.3180    0.0000 N   0  0  0  0  0  0  0  0  0  0  0  0
    1.9855    0.5070    0.0000 C   0  0  0  0  0  0  0  0  0  0  0  0
    1.3180    0.9919    0.0000 C   0  0  0  0  0  0  0  0  0  0  0  0
    0.5334    0.7370    0.0000 C   0  0  0  0  0  0  0  0  0  0  0  0
   -0.0500    1.3204    0.0000 N   0  0  0  0  0  0  0  0  0  0  0  0
   -0.8468    1.1068    0.0000 C   0  0  0  0  0  0  0  0  0  0  0  0
   -1.4302    1.6902    0.0000 C   0  0  0  0  0  0  0  0  0  0  0  0
   -2.2271    1.4767    0.0000 C   0  0  0  0  0  0  0  0  0  0  0  0
   -2.8105    2.0600    0.0000 C   0  0  0  0  0  0  0  0  0  0  0  0
   -2.5969    2.8569    0.0000 C   0  0  0  0  0  0  0  0  0  0  0  0
   -1.8000    3.0704    0.0000 C   0  0  0  0  0  0  0  0  0  0  0  0
   -1.2167    2.4871    0.0000 C   0  0  0  0  0  0  0  0  0  0  0  0
    0.3199   -0.0599    0.0000 O   0  0  0  0  0  0  0  0  0  0  0  0
    1.5730    1.7766    0.0000 C   0  0  0  0  0  0  0  0  0  0  0  0
    1.1605    2.4910    0.0000 C   0  0  0  0  0  0  0  0  0  0  0  0
    1.5730    3.2055    0.0000 C   0  0  0  0  0  0  0  0  0  0  0  0
    2.3980    3.2055    0.0000 C   0  0  0  0  0  0  0  0  0  0  0  0
    2.8105    2.4910    0.0000 C   0  0  0  0  0  0  0  0  0  0  0  0
    2.3980    1.7766    0.0000 C   0  0  0  0  0  0  0  0  0  0  0  0
    2.6529    0.9919    0.0000 S   0  0  0  0  0  0  0  0  0  0  0  0
    0.5565   -1.9680    0.0000 C   0  0  0  0  0  0  0  0  0  0  0  0
   -0.1579   -1.5555    0.0000 C   0  0  0  0  0  0  0  0  0  0  0  0
   -0.8724   -1.9680    0.0000 C   0  0  0  0  0  0  0  0  0  0  0  0
   -0.8724   -2.7930    0.0000 C   0  0  0  0  0  0  0  0  0  0  0  0
   -0.1579   -3.2055    0.0000 C   0  0  0  0  0  0  0  0  0  0  0  0
    0.5565   -2.7930    0.0000 C   0  0  0  0  0  0  0  0  0  0  0  0
    1.2710   -3.2055    0.0000 C   0  0  0  0  0  0  0  0  0  0  0  0
    1.9855   -2.7930    0.0000 C   0  0  0  0  0  0  0  0  0  0  0  0
  1  2  1  0      
  2  3  2  0      
  3  4  1  0      
  4  5  2  0      
  5  6  1  0      
  6  7  2  0      
  7  8  1  0      
  8  9  1  0      
  9 10  1  0      
 10 11  1  0      
 11 12  2  0      
 12 13  1  0      
 13 14  2  0      
 14 15  1  0      
 15 16  2  0      
 11 16  1  0      
  8 17  2  0      
  7 18  1  0      
 18 19  1  0      
 19 20  1  0      
 20 21  1  0      
 21 22  1  0      
 18 23  2  0      
 22 23  1  0      
 23 24  1  0      
  6 24  1  0      
  3 25  1  0      
 25 26  1  0      
 26 27  2  0      
 27 28  1  0      
 28 29  2  0      
 25 30  2  0      
 29 30  1  0      
 30 31  1  0      
 31 32  2  0      
  2 32  1  0      
M  END

>  <RackCode>
HYCPK72334

>  <Cat. No.>
HY-111329

>  <Product Name>
JGB1741

>  <ROW>
A

>  <COLUMN>
6

>  <CAS No.>
1256375-38-8

>  <MWt>
440.56

>  <Target>
Apoptosis; Sirtuin

>  <Saltdate>


>  <Smiles>
OC1=C(C2=C(C=C1)C=CC=C2)/C=N/C3=C(C4=C(S3)CCCC4)C(NCC5=CC=CC=C5)=O

>  <Solvent>
DMSO Solution

>  <Batch No.>
239684

>  <Quantity>
10mM  * 50uL

>  <Pathway>
Apoptosis; Cell Cycle/DNA Damage; Epigenetics

>  <Synonyms>
ILS-JGB-1741

>  <Formula>
C27H24N2O2S

>  <Research_Area>
Cancer

>  <Clinical_Information>
No Development Reported

>  <SUPPLIER>
MedChemExpress

$$$$
Untitled Document
  ChemDraw11042309032D

 31 35  0  0  0  0  0  0  0  0999 V2000
    2.5846   -2.1126    0.0000 O   0  0  0  0  0  0  0  0  0  0  0  0
    2.3297   -1.3280    0.0000 C   0  0  0  0  0  0  0  0  0  0  0  0
    1.5227   -1.1565    0.0000 N   0  0  0  0  0  0  0  0  0  0  0  0
    1.2677   -0.3718    0.0000 C   0  0  0  0  0  0  0  0  0  0  0  0
    1.7527    0.2956    0.0000 N   0  0  0  0  0  0  0  0  0  0  0  0
    1.2677    0.9630    0.0000 N   0  0  0  0  0  0  0  0  0  0  0  0
    0.4831    0.7081    0.0000 C   0  0  0  0  0  0  0  0  0  0  0  0
   -0.2313    1.1206    0.0000 N   0  0  0  0  0  0  0  0  0  0  0  0
   -0.9458    0.7081    0.0000 C   0  0  0  0  0  0  0  0  0  0  0  0
   -0.9458   -0.1169    0.0000 C   0  0  0  0  0  0  0  0  0  0  0  0
   -1.6603   -0.5294    0.0000 F   0  0  0  0  0  0  0  0  0  0  0  0
   -0.2313   -0.5294    0.0000 C   0  0  0  0  0  0  0  0  0  0  0  0
    0.4831   -0.1169    0.0000 C   0  0  0  0  0  0  0  0  0  0  0  0
   -1.6603    1.1206    0.0000 C   0  0  0  0  0  0  0  0  0  0  0  0
   -1.7465    1.9411    0.0000 C   0  0  0  0  0  0  0  0  0  0  0  0
   -2.5535    2.1126    0.0000 N   0  0  0  0  0  0  0  0  0  0  0  0
   -2.9660    1.3981    0.0000 N   0  0  0  0  0  0  0  0  0  0  0  0
   -3.7729    1.2266    0.0000 C   0  0  0  0  0  0  0  0  0  0  0  0
   -4.0278    0.4420    0.0000 C   0  0  0  0  0  0  0  0  0  0  0  0
   -3.4758   -0.1711    0.0000 C   0  0  0  0  0  0  0  0  0  0  0  0
   -3.7307   -0.9557    0.0000 O   0  0  0  0  0  0  0  0  0  0  0  0
   -4.5377   -1.1273    0.0000 C   0  0  0  0  0  0  0  0  0  0  0  0
   -2.6689    0.0004    0.0000 C   0  0  0  0  0  0  0  0  0  0  0  0
   -2.4140    0.7850    0.0000 C   0  0  0  0  0  0  0  0  0  0  0  0
    2.8817   -0.7149    0.0000 C   0  0  0  0  0  0  0  0  0  0  0  0
    2.6267    0.0697    0.0000 C   0  0  0  0  0  0  0  0  0  0  0  0
    3.1787    0.6828    0.0000 C   0  0  0  0  0  0  0  0  0  0  0  0
    3.9857    0.5113    0.0000 C   0  0  0  0  0  0  0  0  0  0  0  0
    4.5377    1.1244    0.0000 F   0  0  0  0  0  0  0  0  0  0  0  0
    4.2406   -0.2733    0.0000 C   0  0  0  0  0  0  0  0  0  0  0  0
    3.6886   -0.8864    0.0000 C   0  0  0  0  0  0  0  0  0  0  0  0
  1  2  2  0      
  2  3  1  0      
  3  4  1  0      
  4  5  2  0      
  5  6  1  0      
  6  7  1  0      
  7  8  1  0      
  8  9  2  0      
  9 10  1  0      
 10 11  1  0      
 10 12  2  0      
 12 13  1  0      
  4 13  1  0      
  7 13  2  0      
  9 14  1  0      
 14 15  1  0      
 15 16  2  0      
 16 17  1  0      
 17 18  1  0      
 18 19  2  0      
 19 20  1  0      
 20 21  1  0      
 21 22  1  0      
 20 23  2  0      
 23 24  1  0      
 14 24  2  0      
 17 24  1  0      
  2 25  1  0      
 25 26  2  0      
 26 27  1  0      
 27 28  2  0      
 28 29  1  0      
 28 30  1  0      
 30 31  2  0      
 25 31  1  0      
M  END

>  <RackCode>
HYCPK72334

>  <Cat. No.>
HY-110218

>  <Product Name>
CW 008

>  <ROW>
B

>  <COLUMN>
6

>  <CAS No.>
1134613-19-6

>  <MWt>
420.37

>  <Target>
Epigenetic Reader Domain; PKA

>  <Saltdate>


>  <Smiles>
O=C(C1=CC=C(C=C1)F)NC2=NNC3=C2C=C(F)C(C4=C5C=C(OC)C=CN5N=C4)=N3

>  <Solvent>
DMSO Solution

>  <Batch No.>
381901

>  <Quantity>
10mM  * 50uL

>  <Pathway>
Epigenetics; Stem Cell/Wnt; TGF-beta/Smad

>  <Synonyms>


>  <Formula>
C21H14F2N6O2

>  <Research_Area>
Others

>  <Clinical_Information>
No Development Reported

>  <SUPPLIER>
MedChemExpress

$$$$
Untitled Document
  ChemDraw06062315162D

 23 26  0  0  0  0  0  0  0  0999 V2000
    3.0218   -0.9319    0.0000 O   0  0  0  0  0  0  0  0  0  0  0  0
    2.3098   -0.5209    0.0000 C   0  0  0  0  0  0  0  0  0  0  0  0
    1.5420   -0.8229    0.0000 C   0  0  0  0  0  0  0  0  0  0  0  0
    1.1295   -1.5373    0.0000 C   0  0  0  0  0  0  0  0  0  0  0  0
    0.3045   -1.5373    0.0000 C   0  0  0  0  0  0  0  0  0  0  0  0
   -0.1080   -0.8229    0.0000 C   0  0  0  0  0  0  0  0  0  0  0  0
    0.3045   -0.1084    0.0000 C   0  0  0  0  0  0  0  0  0  0  0  0
    1.1295   -0.1084    0.0000 C   0  0  0  0  0  0  0  0  0  0  0  0
    1.5420    0.6061    0.0000 C   0  0  0  0  0  0  0  0  0  0  0  0
    1.1295    1.3206    0.0000 C   0  0  0  0  0  0  0  0  0  0  0  0
    0.3045    1.3206    0.0000 C   0  0  0  0  0  0  0  0  0  0  0  0
   -0.1080    0.6061    0.0000 C   0  0  0  0  0  0  0  0  0  0  0  0
   -0.9301    0.6061    0.0000 S   0  0  0  0  0  0  0  0  0  0  0  0
   -0.9301    1.4282    0.0000 O   0  0  0  0  0  0  0  0  0  0  0  0
   -0.9301   -0.2160    0.0000 O   0  0  0  0  0  0  0  0  0  0  0  0
   -1.7522    0.6061    0.0000 N   0  0  0  0  0  0  0  0  0  0  0  0
   -2.2372   -0.0614    0.0000 C   0  0  0  0  0  0  0  0  0  0  0  0
   -3.0218    0.1936    0.0000 C   0  0  0  0  0  0  0  0  0  0  0  0
   -3.0218    1.0186    0.0000 C   0  0  0  0  0  0  0  0  0  0  0  0
   -2.2372    1.2735    0.0000 C   0  0  0  0  0  0  0  0  0  0  0  0
    2.3098    0.3041    0.0000 N   0  0  0  0  0  0  0  0  0  0  0  0
    3.0218    0.7152    0.0000 C   0  0  0  0  0  0  0  0  0  0  0  0
    3.0218    1.5373    0.0000 C   0  0  0  0  0  0  0  0  0  0  0  0
  1  2  2  0      
  2  3  1  0      
  3  4  2  0      
  4  5  1  0      
  5  6  2  0      
  6  7  1  0      
  7  8  1  0      
  3  8  1  0      
  8  9  2  0      
  9 10  1  0      
 10 11  2  0      
 11 12  1  0      
  7 12  2  0      
 12 13  1  0      
 13 14  2  0      
 13 15  2  0      
 13 16  1  0      
 16 17  1  0      
 17 18  1  0      
 18 19  1  0      
 19 20  1  0      
 16 20  1  0      
  9 21  1  0      
  2 21  1  0      
 21 22  1  0      
 22 23  1  0      
M  END

>  <RackCode>
HYCPK72334

>  <Cat. No.>
HY-153751

>  <Product Name>
BRD4-IN-4

>  <ROW>
C

>  <COLUMN>
6

>  <CAS No.>
304685-40-3

>  <MWt>
330.40

>  <Target>
Epigenetic Reader Domain

>  <Saltdate>


>  <Smiles>
O=C1C2=CC=CC3=C(S(=O)(N4CCCC4)=O)C=CC(N1CC)=C32

>  <Solvent>
DMSO Solution

>  <Batch No.>
320675

>  <Quantity>
10mM  * 50uL

>  <Pathway>
Epigenetics

>  <Synonyms>


>  <Formula>
C17H18N2O3S

>  <Research_Area>
Cancer

>  <Clinical_Information>
No Development Reported

>  <SUPPLIER>
MedChemExpress

$$$$
Untitled Document
  ChemDraw01282310122D

 18 19  0  0  0  0  0  0  0  0999 V2000
    3.5723   -0.8250    0.0000 N   0  0  0  0  0  0  0  0  0  0  0  0
    2.8578   -0.4125    0.0000 C   0  0  0  0  0  0  0  0  0  0  0  0
    2.1433    0.0000    0.0000 C   0  0  0  0  0  0  0  0  0  0  0  0
    1.4289   -0.4125    0.0000 C   0  0  0  0  0  0  0  0  0  0  0  0
    0.7145    0.0000    0.0000 C   0  0  0  0  0  0  0  0  0  0  0  0
    0.7145    0.8250    0.0000 C   0  0  0  0  0  0  0  0  0  0  0  0
    0.0000    1.2375    0.0000 O   0  0  0  0  0  0  0  0  0  0  0  0
   -0.7145    0.8250    0.0000 C   0  0  0  0  0  0  0  0  0  0  0  0
   -0.7145    0.0000    0.0000 C   0  0  0  0  0  0  0  0  0  0  0  0
   -1.4289   -0.4125    0.0000 C   0  0  0  0  0  0  0  0  0  0  0  0
   -2.1433    0.0000    0.0000 C   0  0  0  0  0  0  0  0  0  0  0  0
   -2.1433    0.8250    0.0000 C   0  0  0  0  0  0  0  0  0  0  0  0
   -1.4289    1.2375    0.0000 C   0  0  0  0  0  0  0  0  0  0  0  0
   -2.8578   -0.4125    0.0000 C   0  0  0  0  0  0  0  0  0  0  0  0
   -2.8578   -1.2375    0.0000 O   0  0  0  0  0  0  0  0  0  0  0  0
   -3.5723    0.0000    0.0000 N   0  0  0  0  0  0  0  0  0  0  0  0
    1.4289    1.2375    0.0000 C   0  0  0  0  0  0  0  0  0  0  0  0
    2.1433    0.8250    0.0000 C   0  0  0  0  0  0  0  0  0  0  0  0
  1  2  3  0      
  2  3  1  0      
  3  4  2  0      
  4  5  1  0      
  5  6  2  0      
  6  7  1  0      
  7  8  1  0      
  8  9  2  0      
  9 10  1  0      
 10 11  2  0      
 11 12  1  0      
 12 13  2  0      
  8 13  1  0      
 11 14  1  0      
 14 15  2  0      
 14 16  1  0      
  6 17  1  0      
 17 18  2  0      
  3 18  1  0      
M  END

>  <RackCode>
HYCPK72334

>  <Cat. No.>
HY-148753

>  <Product Name>
PARP10-IN-2

>  <ROW>
D

>  <COLUMN>
6

>  <CAS No.>
1042780-52-8

>  <MWt>
238.24

>  <Target>
PARP

>  <Saltdate>


>  <Smiles>
N#CC1=CC=C(C=C1)OC2=CC=C(C(N)=O)C=C2

>  <Solvent>
DMSO Solution

>  <Batch No.>
275317

>  <Quantity>
10mM  * 50uL

>  <Pathway>
Cell Cycle/DNA Damage; Epigenetics

>  <Synonyms>


>  <Formula>
C14H10N2O2

>  <Research_Area>
Cancer

>  <Clinical_Information>
No Development Reported

>  <SUPPLIER>
MedChemExpress

$$$$
Untitled Document
  ChemDraw10211611202D

 35 38  0  0  0  0  0  0  0  0999 V2000
   -1.2046   -1.3676    0.0000 N   0  0  0  0  0  0  0  0  0  0  0  0
   -1.9143   -0.9558    0.0000 C   0  0  0  0  0  0  0  0  0  0  0  0
   -1.9143   -0.1316    0.0000 N   0  0  0  0  0  0  0  0  0  0  0  0
   -1.2046    0.2802    0.0000 C   0  0  0  0  0  0  0  0  0  0  0  0
   -0.4889   -0.1316    0.0000 C   0  0  0  0  0  0  0  0  0  0  0  0
    0.2259    0.2802    0.0000 C   0  0  0  0  0  0  0  0  0  0  0  0
    0.9358   -0.1316    0.0000 C   0  0  0  0  0  0  0  0  0  0  0  0
    0.9358   -0.9558    0.0000 C   0  0  0  0  0  0  0  0  0  0  0  0
    0.2259   -1.3676    0.0000 C   0  0  0  0  0  0  0  0  0  0  0  0
   -0.4889   -0.9558    0.0000 C   0  0  0  0  0  0  0  0  0  0  0  0
   -1.2046    1.1044    0.0000 N   0  0  0  0  0  0  0  0  0  0  0  0
   -3.3448    2.3404    0.0000 N   0  0  0  0  0  0  0  0  0  0  0  0
   -3.3448    1.5162    0.0000 C   0  0  0  0  0  0  0  0  0  0  0  0
   -2.6293    1.1044    0.0000 C   0  0  0  0  0  0  0  0  0  0  0  0
   -1.9143    1.5162    0.0000 C   0  0  0  0  0  0  0  0  0  0  0  0
   -1.9143    2.3404    0.0000 C   0  0  0  0  0  0  0  0  0  0  0  0
   -2.6293    2.7522    0.0000 C   0  0  0  0  0  0  0  0  0  0  0  0
   -4.0540    2.7522    0.0000 C   0  0  0  0  0  0  0  0  0  0  0  0
   -2.6293   -1.3676    0.0000 N   0  0  0  0  0  0  0  0  0  0  0  0
   -3.3104   -0.9043    0.0000 C   0  0  0  0  0  0  0  0  0  0  0  0
   -4.0997   -1.1445    0.0000 C   0  0  0  0  0  0  0  0  0  0  0  0
   -4.3972   -1.9112    0.0000 N   0  0  0  0  0  0  0  0  0  0  0  0
   -3.9854   -2.6265    0.0000 C   0  0  0  0  0  0  0  0  0  0  0  0
   -3.1728   -2.7522    0.0000 C   0  0  0  0  0  0  0  0  0  0  0  0
   -2.5663   -2.1917    0.0000 C   0  0  0  0  0  0  0  0  0  0  0  0
   -5.2214   -1.9112    0.0000 C   0  0  0  0  0  0  0  0  0  0  0  0
    1.6507    0.2802    0.0000 O   0  0  0  0  0  0  0  0  0  0  0  0
    2.3661   -0.1316    0.0000 C   0  0  0  0  0  0  0  0  0  0  0  0
    1.6507   -1.3676    0.0000 O   0  0  0  0  0  0  0  0  0  0  0  0
    2.3661   -0.9558    0.0000 C   0  0  0  0  0  0  0  0  0  0  0  0
    3.0812   -1.3676    0.0000 C   0  0  0  0  0  0  0  0  0  0  0  0
    3.7909   -0.9558    0.0000 C   0  0  0  0  0  0  0  0  0  0  0  0
    4.5065   -1.3676    0.0000 N   0  0  0  0  0  0  0  0  0  0  0  0
    4.5065   -2.1917    0.0000 C   0  0  0  0  0  0  0  0  0  0  0  0
    5.2214   -0.9558    0.0000 C   0  0  0  0  0  0  0  0  0  0  0  0
  1  2  1  0      
  2  3  2  0      
  3  4  1  0      
  4  5  2  0      
  5  6  1  0      
  6  7  2  0      
  7  8  1  0      
  8  9  2  0      
  9 10  1  0      
  1 10  2  0      
  5 10  1  0      
  4 11  1  0      
 12 13  1  0      
 13 14  1  0      
 14 15  1  0      
 15 16  1  0      
 16 17  1  0      
 12 17  1  0      
 12 18  1  0      
 11 15  1  0      
 19 20  1  0      
 20 21  1  0      
 21 22  1  0      
 22 23  1  0      
 23 24  1  0      
 24 25  1  0      
 19 25  1  0      
 22 26  1  0      
  2 19  1  0      
 27 28  1  0      
  7 27  1  0      
 30 31  1  0      
 31 32  1  0      
 29 30  1  0      
 33 34  1  0      
 33 35  1  0      
 32 33  1  0      
  8 29  1  0      
M  END

>  <RackCode>
HYCPK72334

>  <Cat. No.>
HY-10929

>  <Product Name>
UNC0224

>  <ROW>
E

>  <COLUMN>
6

>  <CAS No.>
1197196-48-7

>  <MWt>
485.67

>  <Target>
Histone Methyltransferase

>  <Saltdate>
Free Base

>  <Smiles>
CN1CCC(NC2=C3C=C(OC)C(OCCCN(C)C)=CC3=NC(N4CCN(C)CCC4)=N2)CC1

>  <Solvent>
DMSO Solution

>  <Batch No.>
311978

>  <Quantity>
10mM  * 50uL

>  <Pathway>
Epigenetics

>  <Synonyms>


>  <Formula>
C26H43N7O2

>  <Research_Area>
Cancer

>  <Clinical_Information>
No Development Reported

>  <SUPPLIER>
MedChemExpress

$$$$
Untitled Document
  ChemDraw12082116112D

 38 40  0  0  0  0  0  0  0  0999 V2000
   -1.6750    2.6499    0.0000 N   0  0  0  0  0  0  0  0  0  0  0  0
   -0.9213    2.3143    0.0000 C   0  0  0  0  0  0  0  0  0  0  0  0
   -1.0075    1.4939    0.0000 C   0  0  0  0  0  0  0  0  0  0  0  0
   -1.8145    1.3223    0.0000 C   0  0  0  0  0  0  0  0  0  0  0  0
   -2.2270    2.0368    0.0000 C   0  0  0  0  0  0  0  0  0  0  0  0
   -0.2068    2.7268    0.0000 C   0  0  0  0  0  0  0  0  0  0  0  0
   -0.2068    3.5517    0.0000 O   0  0  0  0  0  0  0  0  0  0  0  0
    0.5076    2.3143    0.0000 N   0  0  0  0  0  0  0  0  0  0  0  0
   -3.0474    2.1230    0.0000 C   0  0  0  0  0  0  0  0  0  0  0  0
   -3.5323    1.4556    0.0000 C   0  0  0  0  0  0  0  0  0  0  0  0
   -4.3528    1.5418    0.0000 C   0  0  0  0  0  0  0  0  0  0  0  0
   -4.6884    2.2955    0.0000 C   0  0  0  0  0  0  0  0  0  0  0  0
   -4.2034    2.9629    0.0000 C   0  0  0  0  0  0  0  0  0  0  0  0
   -3.3830    2.8766    0.0000 C   0  0  0  0  0  0  0  0  0  0  0  0
   -5.5088    2.3818    0.0000 O   0  0  0  0  0  0  0  0  0  0  0  0
    1.2221    2.7268    0.0000 C   0  0  0  0  0  0  0  0  0  0  0  0
    1.9366    2.3143    0.0000 C   0  0  0  0  0  0  0  0  0  0  0  0
    2.6511    2.7268    0.0000 C   0  0  0  0  0  0  0  0  0  0  0  0
    3.3654    2.3143    0.0000 C   0  0  0  0  0  0  0  0  0  0  0  0
    3.3654    1.4893    0.0000 C   0  0  0  0  0  0  0  0  0  0  0  0
    2.6511    1.0768    0.0000 C   0  0  0  0  0  0  0  0  0  0  0  0
    1.9366    1.4893    0.0000 C   0  0  0  0  0  0  0  0  0  0  0  0
    4.0799    1.0768    0.0000 C   0  0  0  0  0  0  0  0  0  0  0  0
    4.0799    0.2518    0.0000 O   0  0  0  0  0  0  0  0  0  0  0  0
    4.7944    1.4893    0.0000 N   0  0  0  0  0  0  0  0  0  0  0  0
    5.5088    1.0768    0.0000 O   0  0  0  0  0  0  0  0  0  0  0  0
    0.2730   -0.2142    0.0000 O   0  0  0  0  0  0  0  0  0  0  0  0
   -0.4807    0.1214    0.0000 C   0  0  0  0  0  0  0  0  0  0  0  0
   -0.3944    0.9418    0.0000 C   0  0  0  0  0  0  0  0  0  0  0  0
    0.4125    1.1134    0.0000 C   0  0  0  0  0  0  0  0  0  0  0  0
    0.8250    0.3989    0.0000 C   0  0  0  0  0  0  0  0  0  0  0  0
   -0.4512   -2.7296    0.0000 C   0  0  0  0  0  0  0  0  0  0  0  0
    0.2633   -2.3172    0.0000 C   0  0  0  0  0  0  0  0  0  0  0  0
    0.2633   -1.4951    0.0000 O   0  0  0  0  0  0  0  0  0  0  0  0
    0.9753   -2.7283    0.0000 O   0  0  0  0  0  0  0  0  0  0  0  0
   -0.4512   -3.5517    0.0000 F   0  0  0  0  0  0  0  0  0  0  0  0
   -1.1632   -2.3186    0.0000 F   0  0  0  0  0  0  0  0  0  0  0  0
   -1.1657   -3.1421    0.0000 F   0  0  0  0  0  0  0  0  0  0  0  0
  1  2  1  0      
  2  3  2  0      
  3  4  1  0      
  4  5  2  0      
  1  5  1  0      
  6  7  2  0      
  6  8  1  0      
  2  6  1  0      
  9 10  1  0      
 10 11  2  0      
 11 12  1  0      
 12 13  2  0      
 13 14  1  0      
  9 14  2  0      
 12 15  1  0      
  5  9  1  0      
 17 18  1  0      
 18 19  2  0      
 19 20  1  0      
 20 21  2  0      
 21 22  1  0      
 17 22  2  0      
 23 24  2  0      
 25 26  1  0      
 23 25  1  0      
 20 23  1  0      
 16 17  1  0      
  8 16  1  0      
 27 28  1  0      
 28 29  2  0      
 29 30  1  0      
 30 31  2  0      
 27 31  1  0      
  3 29  1  0      
 32 33  1  0      
 33 34  2  0      
 33 35  1  0      
 32 36  1  0      
 32 37  1  0      
 32 38  1  0      
M  END

>  <RackCode>
HYCPK72334

>  <Cat. No.>
HY-120448A

>  <Product Name>
QTX125 (TFA)

>  <ROW>
F

>  <COLUMN>
6

>  <CAS No.>
2989537-78-0

>  <MWt>
531.44

>  <Target>
Apoptosis; HDAC

>  <Saltdate>
Trifluoroacetate

>  <Smiles>
O=C(C1=C(C2=COC=C2)C=C(C3=CC=C(O)C=C3)N1)NCC4=CC=C(C(NO)=O)C=C4.O=C(O)C(F)(F)F

>  <Solvent>
DMSO Solution

>  <Batch No.>
157406

>  <Quantity>
10mM  * 50uL

>  <Pathway>
Apoptosis; Cell Cycle/DNA Damage; Epigenetics

>  <Synonyms>


>  <Formula>
C25H20F3N3O7

>  <Research_Area>
Cancer

>  <Clinical_Information>
No Development Reported

>  <SUPPLIER>
MedChemExpress

$$$$
Untitled Document
  ChemDraw08021611192D

 37 40  0  0  0  0  0  0  0  0999 V2000
   -1.9176   -1.3706    0.0000 N   0  0  0  0  0  0  0  0  0  0  0  0
   -2.6324   -0.9588    0.0000 C   0  0  0  0  0  0  0  0  0  0  0  0
   -2.6324   -0.1344    0.0000 N   0  0  0  0  0  0  0  0  0  0  0  0
   -1.9176    0.2774    0.0000 C   0  0  0  0  0  0  0  0  0  0  0  0
   -1.2018   -0.1344    0.0000 C   0  0  0  0  0  0  0  0  0  0  0  0
   -0.4861    0.2774    0.0000 C   0  0  0  0  0  0  0  0  0  0  0  0
    0.2231   -0.1344    0.0000 C   0  0  0  0  0  0  0  0  0  0  0  0
    0.2231   -0.9588    0.0000 C   0  0  0  0  0  0  0  0  0  0  0  0
   -0.4861   -1.3706    0.0000 C   0  0  0  0  0  0  0  0  0  0  0  0
   -1.2018   -0.9588    0.0000 C   0  0  0  0  0  0  0  0  0  0  0  0
   -1.9176    1.1018    0.0000 N   0  0  0  0  0  0  0  0  0  0  0  0
   -4.0573    2.3379    0.0000 N   0  0  0  0  0  0  0  0  0  0  0  0
   -4.0573    1.5136    0.0000 C   0  0  0  0  0  0  0  0  0  0  0  0
   -3.3424    1.1018    0.0000 C   0  0  0  0  0  0  0  0  0  0  0  0
   -2.6324    1.5136    0.0000 C   0  0  0  0  0  0  0  0  0  0  0  0
   -2.6324    2.3379    0.0000 C   0  0  0  0  0  0  0  0  0  0  0  0
   -3.3424    2.7497    0.0000 C   0  0  0  0  0  0  0  0  0  0  0  0
   -4.7730    2.7497    0.0000 C   0  0  0  0  0  0  0  0  0  0  0  0
   -3.3424   -1.3706    0.0000 N   0  0  0  0  0  0  0  0  0  0  0  0
   -4.0230   -0.9073    0.0000 C   0  0  0  0  0  0  0  0  0  0  0  0
   -4.8131   -1.1475    0.0000 C   0  0  0  0  0  0  0  0  0  0  0  0
   -5.1105   -1.9145    0.0000 N   0  0  0  0  0  0  0  0  0  0  0  0
   -4.6987   -2.6296    0.0000 C   0  0  0  0  0  0  0  0  0  0  0  0
   -3.8857   -2.7497    0.0000 C   0  0  0  0  0  0  0  0  0  0  0  0
   -3.2794   -2.1892    0.0000 C   0  0  0  0  0  0  0  0  0  0  0  0
   -5.9348   -1.9145    0.0000 C   0  0  0  0  0  0  0  0  0  0  0  0
    0.9388    0.2774    0.0000 O   0  0  0  0  0  0  0  0  0  0  0  0
    1.6537   -0.1344    0.0000 C   0  0  0  0  0  0  0  0  0  0  0  0
    0.9388   -1.3706    0.0000 O   0  0  0  0  0  0  0  0  0  0  0  0
    1.6537   -0.9588    0.0000 C   0  0  0  0  0  0  0  0  0  0  0  0
    2.3636   -1.3706    0.0000 C   0  0  0  0  0  0  0  0  0  0  0  0
    3.0785   -0.9588    0.0000 O   0  0  0  0  0  0  0  0  0  0  0  0
    3.7943   -1.3706    0.0000 C   0  0  0  0  0  0  0  0  0  0  0  0
    4.5100   -0.9588    0.0000 C   0  0  0  0  0  0  0  0  0  0  0  0
    5.2193   -1.3706    0.0000 N   0  0  0  0  0  0  0  0  0  0  0  0
    5.2193   -2.1949    0.0000 C   0  0  0  0  0  0  0  0  0  0  0  0
    5.9348   -0.9588    0.0000 C   0  0  0  0  0  0  0  0  0  0  0  0
  1  2  1  0      
  2  3  2  0      
  3  4  1  0      
  4  5  2  0      
  5  6  1  0      
  6  7  2  0      
  7  8  1  0      
  8  9  2  0      
  9 10  1  0      
  1 10  2  0      
  5 10  1  0      
  4 11  1  0      
 12 13  1  0      
 13 14  1  0      
 14 15  1  0      
 15 16  1  0      
 16 17  1  0      
 12 17  1  0      
 12 18  1  0      
 11 15  1  0      
 19 20  1  0      
 20 21  1  0      
 21 22  1  0      
 22 23  1  0      
 23 24  1  0      
 24 25  1  0      
 19 25  1  0      
 22 26  1  0      
  2 19  1  0      
 27 28  1  0      
  7 27  1  0      
 30 31  1  0      
 29 30  1  0      
 33 34  1  0      
 32 33  1  0      
 35 36  1  0      
 35 37  1  0      
 34 35  1  0      
 31 32  1  0      
  8 29  1  0      
M  END

>  <RackCode>
HYCPK72334

>  <Cat. No.>
HY-10930

>  <Product Name>
UNC0321

>  <ROW>
G

>  <COLUMN>
6

>  <CAS No.>
1238673-32-9

>  <MWt>
515.69

>  <Target>
Apoptosis; GCGR; Histone Methyltransferase

>  <Saltdate>
Free Base

>  <Smiles>
CN1CCC(NC2=C3C=C(OC)C(OCCOCCN(C)C)=CC3=NC(N4CCN(C)CCC4)=N2)CC1

>  <Solvent>
DMSO Solution

>  <Batch No.>
150496

>  <Quantity>
10mM  * 50uL

>  <Pathway>
Apoptosis; Epigenetics; GPCR/G Protein

>  <Synonyms>


>  <Formula>
C27H45N7O3

>  <Research_Area>
Cancer

>  <Clinical_Information>
No Development Reported

>  <SUPPLIER>
MedChemExpress

$$$$
Untitled Document
  ChemDraw09222317052D

 38 41  0  0  0  0  0  0  0  0999 V2000
    1.2885   -2.0985    0.0000 N   0  0  0  0  0  0  0  0  0  0  0  0
    2.0422   -1.7629    0.0000 C   0  0  0  0  0  0  0  0  0  0  0  0
    2.5942   -2.3760    0.0000 C   0  0  0  0  0  0  0  0  0  0  0  0
    2.1817   -3.0904    0.0000 C   0  0  0  0  0  0  0  0  0  0  0  0
    1.3747   -2.9189    0.0000 C   0  0  0  0  0  0  0  0  0  0  0  0
    2.2137   -0.9560    0.0000 C   0  0  0  0  0  0  0  0  0  0  0  0
    2.9982   -0.7010    0.0000 O   0  0  0  0  0  0  0  0  0  0  0  0
    1.6006   -0.4039    0.0000 N   0  0  0  0  0  0  0  0  0  0  0  0
    1.7721    0.4031    0.0000 C   0  0  0  0  0  0  0  0  0  0  0  0
    2.5568    0.6580    0.0000 C   0  0  0  0  0  0  0  0  0  0  0  0
    1.1590    0.9551    0.0000 C   0  0  0  0  0  0  0  0  0  0  0  0
    1.3306    1.7621    0.0000 C   0  0  0  0  0  0  0  0  0  0  0  0
    0.7175    2.3141    0.0000 C   0  0  0  0  0  0  0  0  0  0  0  0
   -0.0671    2.0592    0.0000 C   0  0  0  0  0  0  0  0  0  0  0  0
   -0.2387    1.2522    0.0000 C   0  0  0  0  0  0  0  0  0  0  0  0
    0.3744    0.7001    0.0000 C   0  0  0  0  0  0  0  0  0  0  0  0
   -1.4872    2.4397    0.0000 S   0  0  0  0  0  0  0  0  0  0  0  0
   -1.8997    3.1540    0.0000 C   0  0  0  0  0  0  0  0  0  0  0  0
   -1.3477    3.7671    0.0000 N   0  0  0  0  0  0  0  0  0  0  0  0
   -0.5940    3.4316    0.0000 C   0  0  0  0  0  0  0  0  0  0  0  0
   -0.6802    2.6112    0.0000 C   0  0  0  0  0  0  0  0  0  0  0  0
    0.1205    3.8441    0.0000 C   0  0  0  0  0  0  0  0  0  0  0  0
    2.1152    2.0170    0.0000 C   0  0  0  0  0  0  0  0  0  0  0  0
    2.5173   -3.8441    0.0000 O   0  0  0  0  0  0  0  0  0  0  0  0
    0.5740   -1.6860    0.0000 C   0  0  0  0  0  0  0  0  0  0  0  0
   -0.1404   -2.0985    0.0000 C   0  0  0  0  0  0  0  0  0  0  0  0
   -0.1404   -2.9234    0.0000 C   0  0  0  0  0  0  0  0  0  0  0  0
   -0.8549   -3.3359    0.0000 C   0  0  0  0  0  0  0  0  0  0  0  0
    0.5740   -0.8610    0.0000 O   0  0  0  0  0  0  0  0  0  0  0  0
   -0.1404   -3.7484    0.0000 C   0  0  0  0  0  0  0  0  0  0  0  0
    0.5740   -3.3359    0.0000 C   0  0  0  0  0  0  0  0  0  0  0  0
   -1.5694   -2.0985    0.0000 C   0  0  0  0  0  0  0  0  0  0  0  0
   -1.5694   -2.9234    0.0000 O   0  0  0  0  0  0  0  0  0  0  0  0
   -0.8549   -1.6860    0.0000 N   0  0  0  0  0  0  0  0  0  0  0  0
   -2.2839   -1.6860    0.0000 C   0  0  0  0  0  0  0  0  0  0  0  0
   -2.6963   -0.9715    0.0000 C   0  0  0  0  0  0  0  0  0  0  0  0
   -1.8714   -0.9715    0.0000 C   0  0  0  0  0  0  0  0  0  0  0  0
   -2.9982   -2.0985    0.0000 F   0  0  0  0  0  0  0  0  0  0  0  0
  1  2  1  0      
  2  3  1  0      
  3  4  1  0      
  4  5  1  0      
  1  5  1  0      
  6  7  2  0      
  6  8  1  0      
  2  6  1  6      
  9 10  1  6      
 11 12  1  0      
 12 13  2  0      
 13 14  1  0      
 14 15  2  0      
 15 16  1  0      
 11 16  2  0      
 17 18  1  0      
 18 19  2  0      
 19 20  1  0      
 20 21  2  0      
 17 21  1  0      
 20 22  1  0      
 14 21  1  0      
 12 23  1  0      
  9 11  1  0      
  8  9  1  0      
  4 24  1  1      
 25 26  1  0      
 26 27  1  6      
 27 28  1  0      
 25 29  2  0      
 27 30  1  0      
 27 31  1  0      
 32 33  2  0      
 32 34  1  0      
 35 36  1  0      
 36 37  1  0      
 35 37  1  0      
 32 35  1  0      
 35 38  1  0      
 26 34  1  0      
  1 25  1  0      
M  END

>  <RackCode>
HYCPK72334

>  <Cat. No.>
HY-156106

>  <Product Name>
VHL-IN-1

>  <ROW>
H

>  <COLUMN>
6

>  <CAS No.>
3033117-53-9

>  <MWt>
544.68

>  <Target>
HIF/HIF Prolyl-Hydroxylase; Ligands for E3 Ligase

>  <Saltdate>


>  <Smiles>
O=C([C@H]1N(C([C@@H](NC(C2(F)CC2)=O)C(C)(C)C)=O)C[C@H](O)C1)N[C@H](C3=CC=C(C4=C(C)N=CS4)C=C3C)C

>  <Solvent>
DMSO Solution

>  <Batch No.>
426396

>  <Quantity>
10mM  * 50uL

>  <Pathway>
Metabolic Enzyme/Protease; PROTAC

>  <Synonyms>


>  <Formula>
C28H37FN4O4S

>  <Research_Area>
cancer

>  <Clinical_Information>
No Development Reported

>  <SUPPLIER>
MedChemExpress

$$$$
Untitled Document
  ChemDraw12081612412D

 39 43  0  0  0  0  0  0  0  0999 V2000
   -2.8578    0.2063    0.0000 C   0  0  0  0  0  0  0  0  0  0  0  0
   -2.1433   -0.2062    0.0000 C   0  0  0  0  0  0  0  0  0  0  0  0
   -1.4289    0.2063    0.0000 C   0  0  0  0  0  0  0  0  0  0  0  0
   -0.7145   -0.2062    0.0000 C   0  0  0  0  0  0  0  0  0  0  0  0
   -0.7145   -1.0313    0.0000 C   0  0  0  0  0  0  0  0  0  0  0  0
   -1.4289   -1.4438    0.0000 C   0  0  0  0  0  0  0  0  0  0  0  0
   -2.1433   -1.0313    0.0000 C   0  0  0  0  0  0  0  0  0  0  0  0
   -2.8578    1.0313    0.0000 O   0  0  0  0  0  0  0  0  0  0  0  0
   -3.5723   -0.2062    0.0000 N   0  0  0  0  0  0  0  0  0  0  0  0
   -4.2867    0.2063    0.0000 C   0  0  0  0  0  0  0  0  0  0  0  0
   -5.0012   -0.2062    0.0000 C   0  0  0  0  0  0  0  0  0  0  0  0
   -5.7156    0.2063    0.0000 C   0  0  0  0  0  0  0  0  0  0  0  0
   -5.7156    1.0313    0.0000 C   0  0  0  0  0  0  0  0  0  0  0  0
   -5.0012    1.4438    0.0000 C   0  0  0  0  0  0  0  0  0  0  0  0
   -4.2867    1.0313    0.0000 C   0  0  0  0  0  0  0  0  0  0  0  0
   -6.4300   -0.2062    0.0000 C   0  0  0  0  0  0  0  0  0  0  0  0
   -7.1445   -0.6188    0.0000 F   0  0  0  0  0  0  0  0  0  0  0  0
   -6.4300   -1.0313    0.0000 F   0  0  0  0  0  0  0  0  0  0  0  0
   -7.1445    0.2063    0.0000 F   0  0  0  0  0  0  0  0  0  0  0  0
    2.1433    1.4438    0.0000 N   0  0  0  0  0  0  0  0  0  0  0  0
    2.8578    1.0313    0.0000 C   0  0  0  0  0  0  0  0  0  0  0  0
    2.8578    0.2063    0.0000 N   0  0  0  0  0  0  0  0  0  0  0  0
    2.1433   -0.2062    0.0000 C   0  0  0  0  0  0  0  0  0  0  0  0
    1.4289    0.2063    0.0000 C   0  0  0  0  0  0  0  0  0  0  0  0
    0.7145   -0.2062    0.0000 C   0  0  0  0  0  0  0  0  0  0  0  0
    0.0000    0.2063    0.0000 C   0  0  0  0  0  0  0  0  0  0  0  0
    0.0000    1.0313    0.0000 C   0  0  0  0  0  0  0  0  0  0  0  0
    0.7145    1.4438    0.0000 C   0  0  0  0  0  0  0  0  0  0  0  0
    1.4289    1.0313    0.0000 C   0  0  0  0  0  0  0  0  0  0  0  0
    3.5723    1.4438    0.0000 N   0  0  0  0  0  0  0  0  0  0  0  0
    4.2867    1.0313    0.0000 C   0  0  0  0  0  0  0  0  0  0  0  0
    5.0012    1.4438    0.0000 C   0  0  0  0  0  0  0  0  0  0  0  0
    5.7156    1.0313    0.0000 N   0  0  0  0  0  0  0  0  0  0  0  0
    6.4300    1.4438    0.0000 C   0  0  0  0  0  0  0  0  0  0  0  0
    7.1445    1.0313    0.0000 C   0  0  0  0  0  0  0  0  0  0  0  0
    7.1445    0.2063    0.0000 O   0  0  0  0  0  0  0  0  0  0  0  0
    6.4300   -0.2062    0.0000 C   0  0  0  0  0  0  0  0  0  0  0  0
    5.7156    0.2063    0.0000 C   0  0  0  0  0  0  0  0  0  0  0  0
    0.0000   -1.4438    0.0000 C   0  0  0  0  0  0  0  0  0  0  0  0
  1  2  1  0      
  2  3  1  0      
  3  4  2  0      
  4  5  1  0      
  5  6  2  0      
  6  7  1  0      
  2  7  2  0      
  1  8  2  0      
  1  9  1  0      
 10 11  1  0      
 11 12  2  0      
 12 13  1  0      
 13 14  2  0      
 14 15  1  0      
 10 15  2  0      
 16 17  1  0      
 16 18  1  0      
 16 19  1  0      
 12 16  1  0      
  9 10  1  0      
 20 21  1  0      
 21 22  2  0      
 22 23  1  0      
 23 24  2  0      
 24 25  1  0      
 25 26  2  0      
 26 27  1  0      
 27 28  2  0      
 28 29  1  0      
 20 29  2  0      
 24 29  1  0      
 31 32  1  0      
 33 34  1  0      
 34 35  1  0      
 35 36  1  0      
 36 37  1  0      
 37 38  1  0      
 33 38  1  0      
 32 33  1  0      
 30 31  1  0      
 21 30  1  0      
  4 26  1  0      
  5 39  1  0      
M  END

>  <RackCode>
HYCPK72334

>  <Cat. No.>
HY-18303

>  <Product Name>
AMG-47a

>  <ROW>
I

>  <COLUMN>
6

>  <CAS No.>
882663-88-9

>  <MWt>
535.56

>  <Target>
JAK; p38 MAPK; Src; VEGFR

>  <Saltdate>
Free Base

>  <Smiles>
O=C(NC1=CC=CC(C(F)(F)F)=C1)C2=CC=C(C)C(C3=CC4=CN=C(NCCN5CCOCC5)N=C4C=C3)=C2

>  <Solvent>
DMSO Solution

>  <Batch No.>
273880

>  <Quantity>
10mM  * 50uL

>  <Pathway>
Epigenetics; JAK/STAT Signaling; MAPK/ERK Pathway; Protein Tyrosine Kinase/RTK; Stem Cell/Wnt

>  <Synonyms>


>  <Formula>
C29H28F3N5O2

>  <Research_Area>
Inflammation/Immunology

>  <Clinical_Information>
No Development Reported

>  <SUPPLIER>
MedChemExpress

$$$$
Untitled Document
  ChemDraw12251713322D

 35 37  0  0  0  0  0  0  0  0999 V2000
   -3.6843   -1.3928    0.0000 C   0  0  0  0  0  0  0  0  0  0  0  0
   -3.5127   -2.1998    0.0000 C   0  0  0  0  0  0  0  0  0  0  0  0
   -2.7281   -2.4547    0.0000 C   0  0  0  0  0  0  0  0  0  0  0  0
   -2.1150   -1.9027    0.0000 C   0  0  0  0  0  0  0  0  0  0  0  0
   -2.2866   -1.0957    0.0000 C   0  0  0  0  0  0  0  0  0  0  0  0
   -3.0712   -0.8408    0.0000 C   0  0  0  0  0  0  0  0  0  0  0  0
   -4.4689   -1.1379    0.0000 Cl  0  0  0  0  0  0  0  0  0  0  0  0
   -4.1258   -2.7518    0.0000 Cl  0  0  0  0  0  0  0  0  0  0  0  0
   -1.6735   -0.5437    0.0000 C   0  0  0  0  0  0  0  0  0  0  0  0
   -0.8665   -0.7152    0.0000 N   0  0  0  0  0  0  0  0  0  0  0  0
   -0.4540   -0.0007    0.0000 N   0  0  0  0  0  0  0  0  0  0  0  0
   -1.0060    0.6124    0.0000 C   0  0  0  0  0  0  0  0  0  0  0  0
   -1.7597    0.2768    0.0000 C   0  0  0  0  0  0  0  0  0  0  0  0
    0.3665    0.0855    0.0000 C   0  0  0  0  0  0  0  0  0  0  0  0
    0.7020    0.8392    0.0000 N   0  0  0  0  0  0  0  0  0  0  0  0
    0.8514   -0.5819    0.0000 N   0  0  0  0  0  0  0  0  0  0  0  0
    1.6719   -0.4957    0.0000 C   0  0  0  0  0  0  0  0  0  0  0  0
    2.1568   -1.1631    0.0000 C   0  0  0  0  0  0  0  0  0  0  0  0
    2.9773   -1.0769    0.0000 C   0  0  0  0  0  0  0  0  0  0  0  0
    3.3129   -0.3232    0.0000 C   0  0  0  0  0  0  0  0  0  0  0  0
    2.8279    0.3442    0.0000 C   0  0  0  0  0  0  0  0  0  0  0  0
    2.0075    0.2580    0.0000 C   0  0  0  0  0  0  0  0  0  0  0  0
    3.1635    1.0979    0.0000 O   0  0  0  0  0  0  0  0  0  0  0  0
    3.9840    1.1841    0.0000 C   0  0  0  0  0  0  0  0  0  0  0  0
    4.3195    1.9378    0.0000 F   0  0  0  0  0  0  0  0  0  0  0  0
    4.4689    0.5167    0.0000 F   0  0  0  0  0  0  0  0  0  0  0  0
   -2.4742    0.6893    0.0000 N   0  0  0  0  0  0  0  0  0  0  0  0
   -3.1886    0.2768    0.0000 C   0  0  0  0  0  0  0  0  0  0  0  0
   -3.9031    0.6893    0.0000 C   0  0  0  0  0  0  0  0  0  0  0  0
   -2.4742    1.5143    0.0000 C   0  0  0  0  0  0  0  0  0  0  0  0
   -3.1886    1.9268    0.0000 C   0  0  0  0  0  0  0  0  0  0  0  0
   -1.7597    1.9268    0.0000 O   0  0  0  0  0  0  0  0  0  0  0  0
   -3.1886    2.7518    0.0000 O   0  0  0  0  0  0  0  0  0  0  0  0
    0.2171    1.5066    0.0000 C   0  0  0  0  0  0  0  0  0  0  0  0
   -0.2661    2.1717    0.0000 N   0  0  0  0  0  0  0  0  0  0  0  0
  1  2  2  0      
  2  3  1  0      
  3  4  2  0      
  4  5  1  0      
  5  6  2  0      
  6  1  1  0      
  1  7  1  0      
  2  8  1  0      
  5  9  1  0      
  9 10  2  0      
 10 11  1  0      
 11 12  1  0      
 12 13  1  0      
 13  9  1  0      
 11 14  1  0      
 14 15  1  0      
 14 16  2  0      
 16 17  1  0      
 17 18  2  0      
 18 19  1  0      
 19 20  2  0      
 20 21  1  0      
 21 22  2  0      
 22 17  1  0      
 21 23  1  0      
 23 24  1  0      
 24 25  1  0      
 24 26  1  0      
 13 27  1  1      
 27 28  1  0      
 28 29  1  0      
 27 30  1  0      
 30 31  1  0      
 30 32  2  0      
 31 33  1  0      
 15 34  1  0      
 34 35  3  0      
M  END

>  <RackCode>
HYCPK72334

>  <Cat. No.>
HY-19546

>  <Product Name>
BAY-598

>  <ROW>
J

>  <COLUMN>
6

>  <CAS No.>
1906919-67-2

>  <MWt>
525.34

>  <Target>
Histone Methyltransferase

>  <Saltdate>
Free Base

>  <Smiles>
ClC1=C(Cl)C=CC(C2=NN(/C(NC#N)=N/C3=CC=CC(OC(F)F)=C3)C[C@@H]2N(C(CO)=O)CC)=C1

>  <Solvent>
DMSO Solution

>  <Batch No.>
40594

>  <Quantity>
10mM  * 50uL

>  <Pathway>
Epigenetics

>  <Synonyms>


>  <Formula>
C22H20Cl2F2N6O3

>  <Research_Area>
Cancer

>  <Clinical_Information>
No Development Reported

>  <SUPPLIER>
MedChemExpress

$$$$
Untitled Document
  ChemDraw12181808512D

 23 22  0  0  0  0  0  0  0  0999 V2000
    2.1384    0.2187    0.0000 C   0  0  0  0  0  0  0  0  0  0  0  0
    2.8529   -0.1938    0.0000 C   0  0  0  0  0  0  0  0  0  0  0  0
    3.5674    0.2187    0.0000 C   0  0  0  0  0  0  0  0  0  0  0  0
    4.2818   -0.1938    0.0000 C   0  0  0  0  0  0  0  0  0  0  0  0
    4.2818   -1.0188    0.0000 C   0  0  0  0  0  0  0  0  0  0  0  0
    3.5674   -1.4313    0.0000 C   0  0  0  0  0  0  0  0  0  0  0  0
    2.8529   -1.0188    0.0000 C   0  0  0  0  0  0  0  0  0  0  0  0
    2.1384    1.0409    0.0000 O   0  0  0  0  0  0  0  0  0  0  0  0
    1.4264   -0.1923    0.0000 N   0  0  0  0  0  0  0  0  0  0  0  0
    0.7144    0.2187    0.0000 C   0  0  0  0  0  0  0  0  0  0  0  0
    0.0025   -0.1923    0.0000 C   0  0  0  0  0  0  0  0  0  0  0  0
   -0.7095    0.2187    0.0000 C   0  0  0  0  0  0  0  0  0  0  0  0
   -1.4239   -0.1937    0.0000 C   0  0  0  0  0  0  0  0  0  0  0  0
   -2.1384    0.2187    0.0000 N   0  0  0  0  0  0  0  0  0  0  0  0
   -2.8529   -0.1938    0.0000 C   0  0  0  0  0  0  0  0  0  0  0  0
   -3.5674    0.2187    0.0000 C   0  0  0  0  0  0  0  0  0  0  0  0
   -2.8529   -1.0188    0.0000 N   0  0  0  0  0  0  0  0  0  0  0  0
   -4.2818   -0.1938    0.0000 Cl  0  0  0  0  0  0  0  0  0  0  0  0
    0.7144    1.0409    0.0000 C   0  0  0  0  0  0  0  0  0  0  0  0
    1.4264    1.4520    0.0000 O   0  0  0  0  0  0  0  0  0  0  0  0
    0.0025    1.4520    0.0000 N   0  0  0  0  0  0  0  0  0  0  0  0
   -0.1219   -1.4520    0.0000 H   0  0  0  0  0  0  0  0  0  0  0  0
    0.7002   -1.4520    0.0000 Cl  0  0  0  0  0  0  0  0  0  0  0  0
  1  2  1  0      
  2  3  1  0      
  3  4  2  0      
  4  5  1  0      
  5  6  2  0      
  6  7  1  0      
  2  7  2  0      
  1  8  2  0      
  1  9  1  0      
 10 11  1  0      
 11 12  1  0      
 12 13  1  0      
 15 16  1  0      
 15 17  2  0      
 16 18  1  0      
 14 15  1  0      
 13 14  1  0      
 19 20  2  0      
 19 21  1  0      
 10 19  1  0      
 10  9  1  1      
 22 23  1  0      
M  END

>  <RackCode>
HYCPK72334

>  <Cat. No.>
HY-100574A

>  <Product Name>
Cl-amidine (hydrochloride)

>  <ROW>
K

>  <COLUMN>
6

>  <CAS No.>
1373232-26-8

>  <MWt>
347.24

>  <Target>
Apoptosis; MicroRNA; Protein Arginine Deiminase

>  <Saltdate>
Hydrochloride

>  <Smiles>
O=C(N[C@H](C(N)=O)CCCNC(CCl)=N)C1=CC=CC=C1.[H]Cl

>  <Solvent>
DMSO Solution

>  <Batch No.>
256149

>  <Quantity>
10mM  * 50uL

>  <Pathway>
Apoptosis; Epigenetics

>  <Synonyms>


>  <Formula>
C14H20Cl2N4O2

>  <Research_Area>
Cancer; Inflammation/Immunology

>  <Clinical_Information>
No Development Reported

>  <SUPPLIER>
MedChemExpress

$$$$
Untitled Document
  ChemDraw05101917272D

 23 25  0  0  0  0  0  0  0  0999 V2000
   -0.3572   -1.8562    0.0000 O   0  0  0  0  0  0  0  0  0  0  0  0
   -1.0717   -1.4437    0.0000 C   0  0  0  0  0  0  0  0  0  0  0  0
   -1.0717   -0.6187    0.0000 C   0  0  0  0  0  0  0  0  0  0  0  0
   -0.3572   -0.2062    0.0000 C   0  0  0  0  0  0  0  0  0  0  0  0
   -0.3572    0.6188    0.0000 N   0  0  0  0  0  0  0  0  0  0  0  0
    0.3572   -0.6187    0.0000 C   0  0  0  0  0  0  0  0  0  0  0  0
    1.0717   -0.2062    0.0000 C   0  0  0  0  0  0  0  0  0  0  0  0
    1.7862   -0.6188    0.0000 C   0  0  0  0  0  0  0  0  0  0  0  0
    2.5006   -0.2062    0.0000 C   0  0  0  0  0  0  0  0  0  0  0  0
    3.2151   -0.6187    0.0000 C   0  0  0  0  0  0  0  0  0  0  0  0
    3.2151   -1.4438    0.0000 C   0  0  0  0  0  0  0  0  0  0  0  0
    2.5006   -1.8563    0.0000 C   0  0  0  0  0  0  0  0  0  0  0  0
    1.7862   -1.4438    0.0000 C   0  0  0  0  0  0  0  0  0  0  0  0
    1.0717    0.6187    0.0000 C   0  0  0  0  0  0  0  0  0  0  0  0
    1.7862    1.0312    0.0000 C   0  0  0  0  0  0  0  0  0  0  0  0
    2.5006    1.4437    0.0000 N   0  0  0  0  0  0  0  0  0  0  0  0
    0.3572    1.0313    0.0000 C   0  0  0  0  0  0  0  0  0  0  0  0
    0.3572    1.8563    0.0000 O   0  0  0  0  0  0  0  0  0  0  0  0
   -1.7862   -0.2062    0.0000 C   0  0  0  0  0  0  0  0  0  0  0  0
   -2.5006   -0.6188    0.0000 C   0  0  0  0  0  0  0  0  0  0  0  0
   -3.2151   -0.2062    0.0000 Br  0  0  0  0  0  0  0  0  0  0  0  0
   -2.5006   -1.4437    0.0000 C   0  0  0  0  0  0  0  0  0  0  0  0
   -1.7862   -1.8562    0.0000 C   0  0  0  0  0  0  0  0  0  0  0  0
  1  2  1  0      
  2  3  2  0      
  3  4  1  0      
  4  5  1  0      
  4  6  2  0      
  6  7  1  0      
  7  8  1  0      
  8  9  2  0      
  9 10  1  0      
 10 11  2  0      
 11 12  1  0      
 12 13  2  0      
  8 13  1  0      
  7 14  2  0      
 14 15  1  0      
 15 16  3  0      
 14 17  1  0      
  5 17  1  0      
 17 18  2  0      
  3 19  1  0      
 19 20  2  0      
 20 21  1  0      
 20 22  1  0      
 22 23  2  0      
  2 23  1  0      
M  END

>  <RackCode>
HYCPK72334

>  <Cat. No.>
HY-18086

>  <Product Name>
TCS PIM-1 1

>  <ROW>
L

>  <COLUMN>
6

>  <CAS No.>
491871-58-0

>  <MWt>
367.20

>  <Target>
Pim

>  <Saltdate>
Free Base

>  <Smiles>
OC1=C(C(N2)=CC(C3=CC=CC=C3)=C(C#N)C2=O)C=C(Br)C=C1

>  <Solvent>
DMSO Solution

>  <Batch No.>
11325

>  <Quantity>
10mM  * 50uL

>  <Pathway>
JAK/STAT Signaling

>  <Synonyms>
SC 204330

>  <Formula>
C18H11BrN2O2

>  <Research_Area>
Cancer

>  <Clinical_Information>
No Development Reported

>  <SUPPLIER>
MedChemExpress

$$$$
Untitled Document
  ChemDraw12012012282D

 76 82  0  0  0  0  0  0  0  0999 V2000
   -7.7394   -0.3672    0.0000 C   0  0  0  0  0  0  0  0  0  0  0  0
   -8.3841   -0.8821    0.0000 C   0  0  0  0  0  0  0  0  0  0  0  0
   -8.2605   -1.6978    0.0000 C   0  0  0  0  0  0  0  0  0  0  0  0
   -7.4924   -1.9986    0.0000 C   0  0  0  0  0  0  0  0  0  0  0  0
   -6.8477   -1.4838    0.0000 C   0  0  0  0  0  0  0  0  0  0  0  0
   -6.9712   -0.6681    0.0000 C   0  0  0  0  0  0  0  0  0  0  0  0
   -8.0299    0.4049    0.0000 C   0  0  0  0  0  0  0  0  0  0  0  0
   -8.8540    0.4049    0.0000 N   0  0  0  0  0  0  0  0  0  0  0  0
   -9.0729   -0.3672    0.0000 C   0  0  0  0  0  0  0  0  0  0  0  0
   -7.5603    1.0833    0.0000 O   0  0  0  0  0  0  0  0  0  0  0  0
   -9.8543   -0.6317    0.0000 O   0  0  0  0  0  0  0  0  0  0  0  0
   -9.3515    1.0631    0.0000 C   0  0  0  0  0  0  0  0  0  0  0  0
   -9.0303    1.8230    0.0000 C   0  0  0  0  0  0  0  0  0  0  0  0
   -9.5277    2.4811    0.0000 N   0  0  0  0  0  0  0  0  0  0  0  0
  -10.3464    2.3793    0.0000 C   0  0  0  0  0  0  0  0  0  0  0  0
  -10.6676    1.6194    0.0000 C   0  0  0  0  0  0  0  0  0  0  0  0
  -10.1701    0.9613    0.0000 C   0  0  0  0  0  0  0  0  0  0  0  0
  -10.8438    3.0375    0.0000 O   0  0  0  0  0  0  0  0  0  0  0  0
   -8.2116    1.9247    0.0000 O   0  0  0  0  0  0  0  0  0  0  0  0
   -6.3879   -0.0847    0.0000 O   0  0  0  0  0  0  0  0  0  0  0  0
   -5.5910   -0.2983    0.0000 C   0  0  0  0  0  0  0  0  0  0  0  0
   -5.0076    0.2851    0.0000 C   0  0  0  0  0  0  0  0  0  0  0  0
   -4.2107    0.0716    0.0000 N   0  0  0  0  0  0  0  0  0  0  0  0
   -3.6274    0.6549    0.0000 C   0  0  0  0  0  0  0  0  0  0  0  0
   -2.8305    0.4414    0.0000 C   0  0  0  0  0  0  0  0  0  0  0  0
   -2.2471    1.0248    0.0000 C   0  0  0  0  0  0  0  0  0  0  0  0
   -1.4502    0.8112    0.0000 O   0  0  0  0  0  0  0  0  0  0  0  0
   -0.8669    1.3946    0.0000 C   0  0  0  0  0  0  0  0  0  0  0  0
   -0.0700    1.1811    0.0000 C   0  0  0  0  0  0  0  0  0  0  0  0
    0.5134    1.7644    0.0000 O   0  0  0  0  0  0  0  0  0  0  0  0
    1.3103    1.5509    0.0000 C   0  0  0  0  0  0  0  0  0  0  0  0
    1.8936    2.1343    0.0000 C   0  0  0  0  0  0  0  0  0  0  0  0
    2.6905    1.9208    0.0000 O   0  0  0  0  0  0  0  0  0  0  0  0
    3.2739    2.5041    0.0000 C   0  0  0  0  0  0  0  0  0  0  0  0
    4.0708    2.2906    0.0000 C   0  0  0  0  0  0  0  0  0  0  0  0
    4.6541    2.8740    0.0000 C   0  0  0  0  0  0  0  0  0  0  0  0
    5.4510    2.6604    0.0000 N   0  0  0  0  0  0  0  0  0  0  0  0
   -5.2212    1.0820    0.0000 O   0  0  0  0  0  0  0  0  0  0  0  0
    5.6646    1.8635    0.0000 C   0  0  0  0  0  0  0  0  0  0  0  0
    6.4614    1.6500    0.0000 O   0  0  0  0  0  0  0  0  0  0  0  0
    7.0448    2.2334    0.0000 C   0  0  0  0  0  0  0  0  0  0  0  0
    6.8313    3.0303    0.0000 C   0  0  0  0  0  0  0  0  0  0  0  0
    6.0344    3.2438    0.0000 C   0  0  0  0  0  0  0  0  0  0  0  0
    7.8417    2.0199    0.0000 C   0  0  0  0  0  0  0  0  0  0  0  0
    8.4251    2.6032    0.0000 C   0  0  0  0  0  0  0  0  0  0  0  0
    8.2115    3.4001    0.0000 C   0  0  0  0  0  0  0  0  0  0  0  0
    7.4146    3.6136    0.0000 C   0  0  0  0  0  0  0  0  0  0  0  0
    9.2219    2.3897    0.0000 N   0  0  0  0  0  0  0  0  0  0  0  0
    9.4354    1.5928    0.0000 C   0  0  0  0  0  0  0  0  0  0  0  0
    8.8521    1.0094    0.0000 N   0  0  0  0  0  0  0  0  0  0  0  0
    9.0656    0.2125    0.0000 C   0  0  0  0  0  0  0  0  0  0  0  0
    9.8624   -0.0010    0.0000 C   0  0  0  0  0  0  0  0  0  0  0  0
   10.4458    0.5824    0.0000 C   0  0  0  0  0  0  0  0  0  0  0  0
   10.2323    1.3793    0.0000 N   0  0  0  0  0  0  0  0  0  0  0  0
    8.4018   -0.2774    0.0000 C   0  0  0  0  0  0  0  0  0  0  0  0
    8.4018   -1.1018    0.0000 C   0  0  0  0  0  0  0  0  0  0  0  0
    9.0656   -1.6399    0.0000 C   0  0  0  0  0  0  0  0  0  0  0  0
    9.8624   -1.4865    0.0000 N   0  0  0  0  0  0  0  0  0  0  0  0
   10.2479   -0.7571    0.0000 C   0  0  0  0  0  0  0  0  0  0  0  0
    8.8651   -2.4402    0.0000 C   0  0  0  0  0  0  0  0  0  0  0  0
    8.0718   -2.6666    0.0000 C   0  0  0  0  0  0  0  0  0  0  0  0
    7.8712   -3.4669    0.0000 C   0  0  0  0  0  0  0  0  0  0  0  0
    8.4640   -4.0407    0.0000 C   0  0  0  0  0  0  0  0  0  0  0  0
    9.2573   -3.8142    0.0000 C   0  0  0  0  0  0  0  0  0  0  0  0
    9.4578   -3.0140    0.0000 C   0  0  0  0  0  0  0  0  0  0  0  0
    7.4790   -2.0928    0.0000 F   0  0  0  0  0  0  0  0  0  0  0  0
   10.2511   -2.7875    0.0000 O   0  0  0  0  0  0  0  0  0  0  0  0
   10.8438   -3.3613    0.0000 C   0  0  0  0  0  0  0  0  0  0  0  0
    7.6879    0.1349    0.0000 C   0  0  0  0  0  0  0  0  0  0  0  0
    6.9739   -0.2774    0.0000 C   0  0  0  0  0  0  0  0  0  0  0  0
    6.9739   -1.1018    0.0000 C   0  0  0  0  0  0  0  0  0  0  0  0
    7.6879   -1.5140    0.0000 C   0  0  0  0  0  0  0  0  0  0  0  0
    6.2594   -1.5143    0.0000 Cl  0  0  0  0  0  0  0  0  0  0  0  0
    5.8209    4.0407    0.0000 O   0  0  0  0  0  0  0  0  0  0  0  0
   -0.2939   -3.1970    0.0000 H   0  0  0  0  0  0  0  0  0  0  0  0
    0.5311   -3.1970    0.0000 Cl  0  0  0  0  0  0  0  0  0  0  0  0
  1  2  2  0      
  2  3  1  0      
  3  4  2  0      
  4  5  1  0      
  5  6  2  0      
  6  1  1  0      
  1  7  1  0      
  7  8  1  0      
  8  9  1  0      
  9  2  1  0      
  7 10  2  0      
  9 11  2  0      
  8 12  1  0      
 12 13  1  0      
 13 14  1  0      
 14 15  1  0      
 15 16  1  0      
 16 17  1  0      
 17 12  1  0      
 15 18  2  0      
 13 19  2  0      
  6 20  1  0      
 20 21  1  0      
 21 22  1  0      
 22 23  1  0      
 23 24  1  0      
 24 25  1  0      
 25 26  1  0      
 26 27  1  0      
 27 28  1  0      
 28 29  1  0      
 29 30  1  0      
 30 31  1  0      
 31 32  1  0      
 32 33  1  0      
 33 34  1  0      
 34 35  1  0      
 35 36  1  0      
 36 37  1  0      
 22 38  2  0      
 39 40  1  0      
 40 41  1  0      
 41 42  1  0      
 42 43  1  0      
 43 37  1  0      
 41 44  2  0      
 44 45  1  0      
 45 46  2  0      
 46 47  1  0      
 47 42  2  0      
 45 48  1  0      
 48 49  1  0      
 49 50  1  0      
 50 51  2  0      
 51 52  1  0      
 52 53  2  0      
 53 54  1  0      
 54 49  2  0      
 51 55  1  0      
 55 56  2  0      
 56 57  1  0      
 57 58  2  0      
 58 59  1  0      
 59 52  1  0      
 57 60  1  0      
 60 61  2  0      
 61 62  1  0      
 62 63  2  0      
 63 64  1  0      
 64 65  2  0      
 65 60  1  0      
 61 66  1  0      
 65 67  1  0      
 67 68  1  0      
 55 69  1  0      
 69 70  2  0      
 70 71  1  0      
 71 72  2  0      
 72 56  1  0      
 71 73  1  0      
 43 74  2  0      
 75 76  1  0      
M  END

>  <RackCode>
HYCPK72334

>  <Cat. No.>
HY-137344A

>  <Product Name>
dAURK-4 (hydrochloride)

>  <ROW>
M

>  <COLUMN>
6

>  <CAS No.>


>  <MWt>
1071.93

>  <Target>
Aurora Kinase

>  <Saltdate>
Hydrochloride

>  <Smiles>
O=C(N(C1C(NC(CC1)=O)=O)C2=O)C3=C2C=CC=C3OCC(NCCCOCCOCCOCCCNC(C4=CC=C(NC5=NC=C6C(C(C=CC(Cl)=C7)=C7C(C8=C(F)C=CC=C8OC)=NC6)=N5)C=C4OC)=O)=O.[H]Cl

>  <Solvent>
DMSO Solution

>  <Batch No.>
90349

>  <Quantity>
10mM  * 50uL

>  <Pathway>
Cell Cycle/DNA Damage; Epigenetics

>  <Synonyms>


>  <Formula>
C52H53Cl2FN8O12

>  <Research_Area>
Cancer

>  <Clinical_Information>
No Development Reported

>  <SUPPLIER>
MedChemExpress

$$$$
Untitled Document
  ChemDraw03031617482D

 45 50  0  0  0  0  0  0  0  0999 V2000
   -1.3587   -2.0025    0.0000 N   0  0  0  0  0  0  0  0  0  0  0  0
   -2.0802   -1.6019    0.0000 C   0  0  0  0  0  0  0  0  0  0  0  0
   -2.0941   -0.7770    0.0000 N   0  0  0  0  0  0  0  0  0  0  0  0
   -1.3863   -0.3526    0.0000 C   0  0  0  0  0  0  0  0  0  0  0  0
   -0.6651   -0.7531    0.0000 C   0  0  0  0  0  0  0  0  0  0  0  0
    0.0424   -0.3287    0.0000 C   0  0  0  0  0  0  0  0  0  0  0  0
    0.7636   -0.7292    0.0000 C   0  0  0  0  0  0  0  0  0  0  0  0
    0.7775   -1.5540    0.0000 C   0  0  0  0  0  0  0  0  0  0  0  0
    0.0700   -1.9785    0.0000 C   0  0  0  0  0  0  0  0  0  0  0  0
   -0.6513   -1.5780    0.0000 C   0  0  0  0  0  0  0  0  0  0  0  0
   -1.4001    0.4722    0.0000 N   0  0  0  0  0  0  0  0  0  0  0  0
    1.4987   -1.9546    0.0000 O   0  0  0  0  0  0  0  0  0  0  0  0
    2.2064   -1.5301    0.0000 C   0  0  0  0  0  0  0  0  0  0  0  0
    2.9273   -1.9307    0.0000 C   0  0  0  0  0  0  0  0  0  0  0  0
    3.6348   -1.5062    0.0000 C   0  0  0  0  0  0  0  0  0  0  0  0
    4.3560   -1.9068    0.0000 N   0  0  0  0  0  0  0  0  0  0  0  0
    5.0634   -1.4823    0.0000 C   0  0  0  0  0  0  0  0  0  0  0  0
    5.7848   -1.8828    0.0000 C   0  0  0  0  0  0  0  0  0  0  0  0
    5.7986   -2.7075    0.0000 C   0  0  0  0  0  0  0  0  0  0  0  0
    5.0911   -3.1319    0.0000 C   0  0  0  0  0  0  0  0  0  0  0  0
    4.3698   -2.7314    0.0000 C   0  0  0  0  0  0  0  0  0  0  0  0
    1.4711   -0.3048    0.0000 O   0  0  0  0  0  0  0  0  0  0  0  0
    2.1926   -0.7053    0.0000 C   0  0  0  0  0  0  0  0  0  0  0  0
   -2.7873   -2.0264    0.0000 N   0  0  0  0  0  0  0  0  0  0  0  0
   -3.4766   -1.5731    0.0000 C   0  0  0  0  0  0  0  0  0  0  0  0
   -4.2608   -1.8295    0.0000 C   0  0  0  0  0  0  0  0  0  0  0  0
   -4.5493   -2.6026    0.0000 N   0  0  0  0  0  0  0  0  0  0  0  0
   -4.1249   -3.3096    0.0000 C   0  0  0  0  0  0  0  0  0  0  0  0
   -3.3072   -3.4189    0.0000 C   0  0  0  0  0  0  0  0  0  0  0  0
   -2.7121   -2.8477    0.0000 C   0  0  0  0  0  0  0  0  0  0  0  0
   -5.3742   -2.6164    0.0000 C   0  0  0  0  0  0  0  0  0  0  0  0
   -5.7986   -1.9088    0.0000 C   0  0  0  0  0  0  0  0  0  0  0  0
   -5.7747   -3.3373    0.0000 C   0  0  0  0  0  0  0  0  0  0  0  0
    0.7222    1.7455    0.0000 N   0  0  0  0  0  0  0  0  0  0  0  0
    0.7360    0.9205    0.0000 C   0  0  0  0  0  0  0  0  0  0  0  0
    0.0285    0.4961    0.0000 C   0  0  0  0  0  0  0  0  0  0  0  0
   -0.6927    0.8966    0.0000 C   0  0  0  0  0  0  0  0  0  0  0  0
   -0.7066    1.7216    0.0000 C   0  0  0  0  0  0  0  0  0  0  0  0
    0.0009    2.1462    0.0000 C   0  0  0  0  0  0  0  0  0  0  0  0
    1.4297    2.1701    0.0000 C   0  0  0  0  0  0  0  0  0  0  0  0
    1.4159    2.9946    0.0000 C   0  0  0  0  0  0  0  0  0  0  0  0
    2.1235    3.4189    0.0000 C   0  0  0  0  0  0  0  0  0  0  0  0
    2.8444    3.0185    0.0000 C   0  0  0  0  0  0  0  0  0  0  0  0
    2.8582    2.1940    0.0000 C   0  0  0  0  0  0  0  0  0  0  0  0
    2.1512    1.7694    0.0000 C   0  0  0  0  0  0  0  0  0  0  0  0
  1  2  1  0      
  2  3  2  0      
  3  4  1  0      
  4  5  2  0      
  5  6  1  0      
  6  7  2  0      
  7  8  1  0      
  8  9  2  0      
  9 10  1  0      
  1 10  2  0      
  5 10  1  0      
  4 11  1  0      
 13 14  1  0      
 14 15  1  0      
 12 13  1  0      
 16 17  1  0      
 17 18  1  0      
 18 19  1  0      
 19 20  1  0      
 20 21  1  0      
 16 21  1  0      
 15 16  1  0      
  8 12  1  0      
 22 23  1  0      
  7 22  1  0      
 24 25  1  0      
 25 26  1  0      
 26 27  1  0      
 27 28  1  0      
 28 29  1  0      
 29 30  1  0      
 24 30  1  0      
 31 32  1  0      
 31 33  1  0      
 27 31  1  0      
  2 24  1  0      
 34 35  1  0      
 35 36  1  0      
 36 37  1  0      
 37 38  1  0      
 38 39  1  0      
 34 39  1  0      
 40 41  1  0      
 41 42  1  0      
 42 43  1  0      
 43 44  1  0      
 44 45  1  0      
 40 45  1  0      
 34 40  1  0      
 11 37  1  0      
M  END

>  <RackCode>
HYCPK72334

>  <Cat. No.>
HY-13807

>  <Product Name>
UNC0646

>  <ROW>
N

>  <COLUMN>
6

>  <CAS No.>
1320288-17-2

>  <MWt>
621.90

>  <Target>
Histone Methyltransferase

>  <Saltdate>
Free Base

>  <Smiles>
COC1=CC2=C(NC3CCN(C4CCCCC4)CC3)N=C(N5CCN(C(C)C)CCC5)N=C2C=C1OCCCN6CCCCC6

>  <Solvent>
DMSO Solution

>  <Batch No.>
295383

>  <Quantity>
10mM  * 50uL

>  <Pathway>
Epigenetics

>  <Synonyms>


>  <Formula>
C36H59N7O2

>  <Research_Area>
Cancer

>  <Clinical_Information>
No Development Reported

>  <SUPPLIER>
MedChemExpress

$$$$
Untitled Document
  ChemDraw11092116082D

 19 20  0  0  0  0  0  0  0  0999 V2000
    2.8578    1.1822    0.0000 O   0  0  0  0  0  0  0  0  0  0  0  0
    2.1433    0.7697    0.0000 C   0  0  0  0  0  0  0  0  0  0  0  0
    2.1433   -0.0553    0.0000 C   0  0  0  0  0  0  0  0  0  0  0  0
    1.4289   -0.4678    0.0000 C   0  0  0  0  0  0  0  0  0  0  0  0
    0.7145   -0.0553    0.0000 C   0  0  0  0  0  0  0  0  0  0  0  0
    0.7145    0.7697    0.0000 C   0  0  0  0  0  0  0  0  0  0  0  0
    1.4289    1.1822    0.0000 C   0  0  0  0  0  0  0  0  0  0  0  0
    0.0000   -0.4678    0.0000 C   0  0  0  0  0  0  0  0  0  0  0  0
   -0.7145   -0.0553    0.0000 C   0  0  0  0  0  0  0  0  0  0  0  0
   -1.4289   -0.4678    0.0000 C   0  0  0  0  0  0  0  0  0  0  0  0
   -2.1433   -0.0553    0.0000 C   0  0  0  0  0  0  0  0  0  0  0  0
   -2.1433    0.7697    0.0000 C   0  0  0  0  0  0  0  0  0  0  0  0
   -2.8578    1.1822    0.0000 O   0  0  0  0  0  0  0  0  0  0  0  0
   -3.5723    0.7697    0.0000 C   0  0  0  0  0  0  0  0  0  0  0  0
   -1.4289    1.1822    0.0000 C   0  0  0  0  0  0  0  0  0  0  0  0
   -0.7145    0.7697    0.0000 C   0  0  0  0  0  0  0  0  0  0  0  0
   -0.4125   -1.1822    0.0000 C   0  0  0  0  0  0  0  0  0  0  0  0
    0.4125   -1.1822    0.0000 C   0  0  0  0  0  0  0  0  0  0  0  0
    3.5723    0.7697    0.0000 C   0  0  0  0  0  0  0  0  0  0  0  0
  1  2  1  0      
  2  3  2  0      
  3  4  1  0      
  4  5  2  0      
  5  6  1  0      
  6  7  2  0      
  2  7  1  0      
  5  8  1  0      
  8  9  1  0      
  9 10  2  0      
 10 11  1  0      
 11 12  2  0      
 12 13  1  0      
 13 14  1  0      
 12 15  1  0      
 15 16  2  0      
  9 16  1  0      
  8 17  1  0      
  8 18  1  0      
  1 19  1  0      
M  END

>  <RackCode>
HYCPK72334

>  <Cat. No.>
HY-115746

>  <Product Name>
Dimethyl-bisphenol A

>  <ROW>
O

>  <COLUMN>
6

>  <CAS No.>
1568-83-8

>  <MWt>
256.34

>  <Target>
HIF/HIF Prolyl-Hydroxylase

>  <Saltdate>


>  <Smiles>
COC(C=C1)=CC=C1C(C)(C)C(C=C2)=CC=C2OC

>  <Solvent>
DMSO Solution

>  <Batch No.>
248290

>  <Quantity>
10mM  * 50uL

>  <Pathway>
Metabolic Enzyme/Protease

>  <Synonyms>
DMBPA

>  <Formula>
C17H20O2

>  <Research_Area>
Cancer

>  <Clinical_Information>
No Development Reported

>  <SUPPLIER>
MedChemExpress

$$$$
Untitled Document
  ChemDraw06292317402D

 20 22  0  0  0  0  0  0  0  0999 V2000
    0.9570   -0.2933    0.0000 O   0  0  0  0  0  0  0  0  0  0  0  0
    0.1723   -0.0384    0.0000 S   0  0  0  0  0  0  0  0  0  0  0  0
   -0.6123    0.2165    0.0000 O   0  0  0  0  0  0  0  0  0  0  0  0
    0.4273    0.7462    0.0000 C   0  0  0  0  0  0  0  0  0  0  0  0
    1.2343    0.9177    0.0000 C   0  0  0  0  0  0  0  0  0  0  0  0
    1.4892    1.7024    0.0000 C   0  0  0  0  0  0  0  0  0  0  0  0
    2.2961    1.8739    0.0000 Cl  0  0  0  0  0  0  0  0  0  0  0  0
    0.9372    2.3154    0.0000 C   0  0  0  0  0  0  0  0  0  0  0  0
    0.1302    2.1438    0.0000 C   0  0  0  0  0  0  0  0  0  0  0  0
   -0.1248    1.3593    0.0000 C   0  0  0  0  0  0  0  0  0  0  0  0
   -0.9317    1.1878    0.0000 Cl  0  0  0  0  0  0  0  0  0  0  0  0
   -0.0826   -0.8230    0.0000 N   0  0  0  0  0  0  0  0  0  0  0  0
    0.4023   -1.4905    0.0000 C   0  0  0  0  0  0  0  0  0  0  0  0
   -0.0826   -2.1578    0.0000 N   0  0  0  0  0  0  0  0  0  0  0  0
   -0.8672   -1.9029    0.0000 C   0  0  0  0  0  0  0  0  0  0  0  0
   -1.5817   -2.3154    0.0000 C   0  0  0  0  0  0  0  0  0  0  0  0
   -2.2961   -1.9029    0.0000 C   0  0  0  0  0  0  0  0  0  0  0  0
   -2.2961   -1.0780    0.0000 C   0  0  0  0  0  0  0  0  0  0  0  0
   -1.5817   -0.6655    0.0000 C   0  0  0  0  0  0  0  0  0  0  0  0
   -0.8672   -1.0780    0.0000 C   0  0  0  0  0  0  0  0  0  0  0  0
  1  2  2  0      
  2  3  2  0      
  2  4  1  0      
  4  5  2  0      
  5  6  1  0      
  6  7  1  0      
  6  8  2  0      
  8  9  1  0      
  9 10  2  0      
  4 10  1  0      
 10 11  1  0      
  2 12  1  0      
 12 13  1  0      
 13 14  2  0      
 14 15  1  0      
 15 16  1  0      
 16 17  2  0      
 17 18  1  0      
 18 19  2  0      
 19 20  1  0      
 15 20  2  0      
 12 20  1  0      
M  END

>  <RackCode>
HYCPK72334

>  <Cat. No.>
HY-154949

>  <Product Name>
WDR5-IN-6

>  <ROW>
P

>  <COLUMN>
6

>  <CAS No.>
326901-92-2

>  <MWt>
327.19

>  <Target>
WDR5

>  <Saltdate>


>  <Smiles>
O=S(C1=CC(Cl)=CC=C1Cl)(N2C=NC3=C2C=CC=C3)=O

>  <Solvent>
DMSO Solution

>  <Batch No.>
278320

>  <Quantity>
10mM  * 50uL

>  <Pathway>
Epigenetics

>  <Synonyms>


>  <Formula>
C13H8Cl2N2O2S

>  <Research_Area>
Cancer

>  <Clinical_Information>
No Development Reported

>  <SUPPLIER>
MedChemExpress

$$$$
Untitled Document
  ChemDraw02151715562D

 30 33  0  0  0  0  0  0  0  0999 V2000
    2.5006    1.8563    0.0000 C   0  0  0  0  0  0  0  0  0  0  0  0
    3.2151    2.2688    0.0000 C   0  0  0  0  0  0  0  0  0  0  0  0
    3.9296    1.8563    0.0000 C   0  0  0  0  0  0  0  0  0  0  0  0
    3.9296    1.0313    0.0000 C   0  0  0  0  0  0  0  0  0  0  0  0
    3.2151    0.6187    0.0000 C   0  0  0  0  0  0  0  0  0  0  0  0
    2.5006    1.0313    0.0000 C   0  0  0  0  0  0  0  0  0  0  0  0
    1.0717    1.8563    0.0000 C   0  0  0  0  0  0  0  0  0  0  0  0
    1.7862    2.2688    0.0000 C   0  0  0  0  0  0  0  0  0  0  0  0
    1.0717    1.0313    0.0000 O   0  0  0  0  0  0  0  0  0  0  0  0
    0.3572    2.2688    0.0000 N   0  0  0  0  0  0  0  0  0  0  0  0
    1.7862    3.0938    0.0000 C   0  0  0  0  0  0  0  0  0  0  0  0
   -0.3572    1.8563    0.0000 C   0  0  0  0  0  0  0  0  0  0  0  0
   -0.3572    1.0313    0.0000 C   0  0  0  0  0  0  0  0  0  0  0  0
   -1.0717    0.6187    0.0000 C   0  0  0  0  0  0  0  0  0  0  0  0
   -1.7862    1.0313    0.0000 C   0  0  0  0  0  0  0  0  0  0  0  0
   -1.7862    1.8563    0.0000 C   0  0  0  0  0  0  0  0  0  0  0  0
   -1.0717    2.2688    0.0000 C   0  0  0  0  0  0  0  0  0  0  0  0
   -1.0717   -0.2063    0.0000 N   0  0  0  0  0  0  0  0  0  0  0  0
   -1.7862   -0.6188    0.0000 C   0  0  0  0  0  0  0  0  0  0  0  0
   -1.7862   -1.4438    0.0000 C   0  0  0  0  0  0  0  0  0  0  0  0
   -1.0717   -1.8563    0.0000 C   0  0  0  0  0  0  0  0  0  0  0  0
   -1.0717   -2.6813    0.0000 C   0  0  0  0  0  0  0  0  0  0  0  0
   -1.7862   -3.0938    0.0000 C   0  0  0  0  0  0  0  0  0  0  0  0
   -2.5006   -2.6813    0.0000 C   0  0  0  0  0  0  0  0  0  0  0  0
   -3.2151   -3.0938    0.0000 C   0  0  0  0  0  0  0  0  0  0  0  0
   -3.9296   -2.6813    0.0000 C   0  0  0  0  0  0  0  0  0  0  0  0
   -3.9296   -1.8563    0.0000 C   0  0  0  0  0  0  0  0  0  0  0  0
   -3.2151   -1.4438    0.0000 C   0  0  0  0  0  0  0  0  0  0  0  0
   -2.5006   -1.8563    0.0000 C   0  0  0  0  0  0  0  0  0  0  0  0
   -0.3572   -1.4438    0.0000 O   0  0  0  0  0  0  0  0  0  0  0  0
  1  2  1  0      
  2  3  2  0      
  3  4  1  0      
  4  5  2  0      
  5  6  1  0      
  1  6  2  0      
  7  8  1  0      
  7  9  2  0      
  7 10  1  0      
  1  8  1  0      
  8 11  1  0      
 12 13  1  0      
 13 14  2  0      
 14 15  1  0      
 15 16  2  0      
 16 17  1  0      
 12 17  2  0      
 20 21  1  0      
 21 22  2  0      
 22 23  1  0      
 23 24  2  0      
 24 25  1  0      
 25 26  2  0      
 26 27  1  0      
 27 28  2  0      
 28 29  1  0      
 20 29  2  0      
 24 29  1  0      
 21 30  1  0      
 19 20  1  0      
 18 19  2  0      
 14 18  1  0      
 10 12  1  0      
M  END

>  <RackCode>
HYCPK72334

>  <Cat. No.>
HY-101073

>  <Product Name>
Salermide

>  <ROW>
A

>  <COLUMN>
7

>  <CAS No.>
1105698-15-4

>  <MWt>
394.47

>  <Target>
Apoptosis; Sirtuin

>  <Saltdate>
Free Base

>  <Smiles>
O=C(NC1=CC=CC(/N=C/C2=C3C=CC=CC3=CC=C2O)=C1)C(C)C4=CC=CC=C4

>  <Solvent>
DMSO Solution

>  <Batch No.>
23449

>  <Quantity>
10mM  * 50uL

>  <Pathway>
Apoptosis; Cell Cycle/DNA Damage; Epigenetics

>  <Synonyms>


>  <Formula>
C26H22N2O2

>  <Research_Area>
Cancer

>  <Clinical_Information>
No Development Reported

>  <SUPPLIER>
MedChemExpress

$$$$
Untitled Document
  ChemDraw09192215262D

 29 32  0  0  0  0  0  0  0  0999 V2000
    0.3572    2.7667    0.0000 C   0  0  0  0  0  0  0  0  0  0  0  0
    1.0717    2.3542    0.0000 N   0  0  0  0  0  0  0  0  0  0  0  0
    1.0717    1.5292    0.0000 C   0  0  0  0  0  0  0  0  0  0  0  0
    0.3572    1.1167    0.0000 C   0  0  0  0  0  0  0  0  0  0  0  0
   -0.3572    1.5292    0.0000 C   0  0  0  0  0  0  0  0  0  0  0  0
   -1.0717    1.1167    0.0000 C   0  0  0  0  0  0  0  0  0  0  0  0
   -1.7862    1.5292    0.0000 C   0  0  0  0  0  0  0  0  0  0  0  0
   -1.7862    2.3542    0.0000 C   0  0  0  0  0  0  0  0  0  0  0  0
   -1.0717    2.7667    0.0000 C   0  0  0  0  0  0  0  0  0  0  0  0
   -0.3572    2.3542    0.0000 C   0  0  0  0  0  0  0  0  0  0  0  0
    0.3572    3.5917    0.0000 O   0  0  0  0  0  0  0  0  0  0  0  0
    1.7862    2.7667    0.0000 C   0  0  0  0  0  0  0  0  0  0  0  0
   -2.5006    2.7667    0.0000 F   0  0  0  0  0  0  0  0  0  0  0  0
    0.3572    0.2917    0.0000 C   0  0  0  0  0  0  0  0  0  0  0  0
    1.0717   -0.1208    0.0000 C   0  0  0  0  0  0  0  0  0  0  0  0
    1.0717   -0.9458    0.0000 C   0  0  0  0  0  0  0  0  0  0  0  0
    0.3572   -1.3583    0.0000 C   0  0  0  0  0  0  0  0  0  0  0  0
   -0.3572   -0.9458    0.0000 C   0  0  0  0  0  0  0  0  0  0  0  0
   -0.3572   -0.1208    0.0000 C   0  0  0  0  0  0  0  0  0  0  0  0
   -1.0717    0.2917    0.0000 O   0  0  0  0  0  0  0  0  0  0  0  0
   -1.7862   -0.1208    0.0000 C   0  0  0  0  0  0  0  0  0  0  0  0
    1.7862    0.2917    0.0000 O   0  0  0  0  0  0  0  0  0  0  0  0
    2.5006   -0.1208    0.0000 C   0  0  0  0  0  0  0  0  0  0  0  0
    0.3572   -2.1833    0.0000 C   0  0  0  0  0  0  0  0  0  0  0  0
   -0.3572   -2.5958    0.0000 N   0  0  0  0  0  0  0  0  0  0  0  0
   -0.5708   -3.3927    0.0000 C   0  0  0  0  0  0  0  0  0  0  0  0
   -1.3676   -3.1792    0.0000 C   0  0  0  0  0  0  0  0  0  0  0  0
   -1.1541   -2.3823    0.0000 C   0  0  0  0  0  0  0  0  0  0  0  0
   -2.0821   -3.5917    0.0000 N   0  0  0  0  0  0  0  0  0  0  0  0
  1  2  1  0      
  2  3  1  0      
  3  4  2  0      
  4  5  1  0      
  5  6  1  0      
  6  7  2  0      
  7  8  1  0      
  8  9  2  0      
  9 10  1  0      
  1 10  1  0      
  5 10  2  0      
  1 11  2  0      
  2 12  1  0      
  8 13  1  0      
 14 15  1  0      
 15 16  2  0      
 16 17  1  0      
 17 18  2  0      
 18 19  1  0      
 14 19  2  0      
 20 21  1  0      
 19 20  1  0      
 22 23  1  0      
 15 22  1  0      
 25 26  1  0      
 26 27  1  0      
 27 28  1  0      
 25 28  1  0      
 27 29  1  0      
 24 25  1  0      
 17 24  1  0      
  4 14  1  0      
M  END

>  <RackCode>
HYCPK72334

>  <Cat. No.>
HY-148116

>  <Product Name>
DN02

>  <ROW>
B

>  <COLUMN>
7

>  <CAS No.>


>  <MWt>
397.44

>  <Target>
Epigenetic Reader Domain

>  <Saltdate>


>  <Smiles>
O=C1N(C)C=C(C2=C(OC)C=C(CN3CC(N)C3)C=C2OC)C4=C1C=C(F)C=C4

>  <Solvent>
DMSO Solution

>  <Batch No.>
259012

>  <Quantity>
10mM  * 50uL

>  <Pathway>
Epigenetics

>  <Synonyms>


>  <Formula>
C22H24FN3O3

>  <Research_Area>
Cancer

>  <Clinical_Information>
No Development Reported

>  <SUPPLIER>
MedChemExpress

$$$$
Untitled Document
  ChemDraw04192110022D

 26 30  0  0  0  0  0  0  0  0999 V2000
    0.0835   -1.5736    0.0000 C   0  0  0  0  0  0  0  0  0  0  0  0
    0.4960   -0.8591    0.0000 C   0  0  0  0  0  0  0  0  0  0  0  0
    1.3210   -0.8591    0.0000 C   0  0  0  0  0  0  0  0  0  0  0  0
    1.7334   -1.5736    0.0000 C   0  0  0  0  0  0  0  0  0  0  0  0
    1.3210   -2.2879    0.0000 C   0  0  0  0  0  0  0  0  0  0  0  0
    0.4960   -2.2879    0.0000 C   0  0  0  0  0  0  0  0  0  0  0  0
   -0.7415   -1.5736    0.0000 C   0  0  0  0  0  0  0  0  0  0  0  0
   -1.2264   -2.2409    0.0000 N   0  0  0  0  0  0  0  0  0  0  0  0
   -2.0109   -1.9860    0.0000 C   0  0  0  0  0  0  0  0  0  0  0  0
   -2.0109   -1.1611    0.0000 C   0  0  0  0  0  0  0  0  0  0  0  0
   -1.2264   -0.9061    0.0000 N   0  0  0  0  0  0  0  0  0  0  0  0
   -2.7254   -2.3985    0.0000 C   0  0  0  0  0  0  0  0  0  0  0  0
   -3.4399   -1.9860    0.0000 C   0  0  0  0  0  0  0  0  0  0  0  0
   -3.4399   -1.1611    0.0000 C   0  0  0  0  0  0  0  0  0  0  0  0
   -2.7254   -0.7486    0.0000 C   0  0  0  0  0  0  0  0  0  0  0  0
   -4.1544   -2.3985    0.0000 N   0  0  0  0  0  0  0  0  0  0  0  0
    1.7334   -0.1446    0.0000 C   0  0  0  0  0  0  0  0  0  0  0  0
    2.5539   -0.0584    0.0000 N   0  0  0  0  0  0  0  0  0  0  0  0
    2.7254    0.7486    0.0000 C   0  0  0  0  0  0  0  0  0  0  0  0
    2.0109    1.1611    0.0000 C   0  0  0  0  0  0  0  0  0  0  0  0
    1.3979    0.6090    0.0000 N   0  0  0  0  0  0  0  0  0  0  0  0
    3.4399    1.1611    0.0000 C   0  0  0  0  0  0  0  0  0  0  0  0
    3.4399    1.9860    0.0000 C   0  0  0  0  0  0  0  0  0  0  0  0
    2.7254    2.3985    0.0000 C   0  0  0  0  0  0  0  0  0  0  0  0
    2.0109    1.9860    0.0000 C   0  0  0  0  0  0  0  0  0  0  0  0
    4.1544    2.3985    0.0000 N   0  0  0  0  0  0  0  0  0  0  0  0
  1  2  1  0      
  2  3  2  0      
  3  4  1  0      
  4  5  2  0      
  5  6  1  0      
  1  6  2  0      
  7  8  2  0      
  8  9  1  0      
  9 10  1  0      
 10 11  1  0      
  7 11  1  0      
 12 13  1  0      
 13 14  2  0      
 14 15  1  0      
 15 10  2  0      
 12  9  2  0      
 13 16  1  0      
  1  7  1  0      
 17 18  2  0      
 18 19  1  0      
 19 20  1  0      
 20 21  1  0      
 17 21  1  0      
 22 23  1  0      
 23 24  2  0      
 24 25  1  0      
 25 20  2  0      
 22 19  2  0      
 23 26  1  0      
  3 17  1  0      
M  END

>  <RackCode>
HYCPK72334

>  <Cat. No.>
HY-138647

>  <Product Name>
TGP-377/421

>  <ROW>
C

>  <COLUMN>
7

>  <CAS No.>
16752-89-9

>  <MWt>
340.38

>  <Target>
MicroRNA

>  <Saltdate>


>  <Smiles>
NC1=CC=C2C(N=C(C3=CC=CC(C4=NC5=CC(N)=CC=C5N4)=C3)N2)=C1

>  <Solvent>
DMSO Solution

>  <Batch No.>
251701

>  <Quantity>
10mM  * 50uL

>  <Pathway>
Epigenetics

>  <Synonyms>
Targapre-miR-377/421

>  <Formula>
C20H16N6

>  <Research_Area>
Cardiovascular Disease

>  <Clinical_Information>
No Development Reported

>  <SUPPLIER>
MedChemExpress

$$$$
Untitled Document
  ChemDraw02282313212D

 23 25  0  0  0  0  0  0  0  0999 V2000
    0.7145    1.0313    0.0000 O   0  0  0  0  0  0  0  0  0  0  0  0
    0.7145    0.2062    0.0000 C   0  0  0  0  0  0  0  0  0  0  0  0
    1.4289   -0.2062    0.0000 N   0  0  0  0  0  0  0  0  0  0  0  0
    2.1435    0.2062    0.0000 C   0  0  0  0  0  0  0  0  0  0  0  0
    2.1435    1.0313    0.0000 C   0  0  0  0  0  0  0  0  0  0  0  0
    2.8580    1.4437    0.0000 C   0  0  0  0  0  0  0  0  0  0  0  0
    3.5725    1.0313    0.0000 C   0  0  0  0  0  0  0  0  0  0  0  0
    4.2869    1.4437    0.0000 I   0  0  0  0  0  0  0  0  0  0  0  0
    3.5725    0.2062    0.0000 C   0  0  0  0  0  0  0  0  0  0  0  0
    2.8580   -0.2062    0.0000 C   0  0  0  0  0  0  0  0  0  0  0  0
   -0.0000   -0.2062    0.0000 C   0  0  0  0  0  0  0  0  0  0  0  0
   -0.0000   -1.0313    0.0000 C   0  0  0  0  0  0  0  0  0  0  0  0
   -0.7145   -1.4437    0.0000 C   0  0  0  0  0  0  0  0  0  0  0  0
   -1.4289   -1.0313    0.0000 C   0  0  0  0  0  0  0  0  0  0  0  0
   -1.4289   -0.2062    0.0000 C   0  0  0  0  0  0  0  0  0  0  0  0
   -0.7145    0.2062    0.0000 C   0  0  0  0  0  0  0  0  0  0  0  0
   -2.1435   -1.4437    0.0000 C   0  0  0  0  0  0  0  0  0  0  0  0
   -2.8580   -1.0313    0.0000 N   0  0  0  0  0  0  0  0  0  0  0  0
   -3.5725   -1.4437    0.0000 C   0  0  0  0  0  0  0  0  0  0  0  0
   -4.2869   -1.0313    0.0000 C   0  0  0  0  0  0  0  0  0  0  0  0
   -4.2869   -0.2062    0.0000 O   0  0  0  0  0  0  0  0  0  0  0  0
   -3.5725    0.2062    0.0000 C   0  0  0  0  0  0  0  0  0  0  0  0
   -2.8580   -0.2062    0.0000 C   0  0  0  0  0  0  0  0  0  0  0  0
  1  2  2  0      
  2  3  1  0      
  3  4  1  0      
  4  5  2  0      
  5  6  1  0      
  6  7  2  0      
  7  8  1  0      
  7  9  1  0      
  9 10  2  0      
  4 10  1  0      
  2 11  1  0      
 11 12  2  0      
 12 13  1  0      
 13 14  2  0      
 14 15  1  0      
 15 16  2  0      
 11 16  1  0      
 14 17  1  0      
 17 18  1  0      
 18 19  1  0      
 19 20  1  0      
 20 21  1  0      
 21 22  1  0      
 22 23  1  0      
 18 23  1  0      
M  END

>  <RackCode>
HYCPK72334

>  <Cat. No.>
HY-153017

>  <Product Name>
HIF-1 inhibitor-4

>  <ROW>
D

>  <COLUMN>
7

>  <CAS No.>
333357-56-5

>  <MWt>
422.26

>  <Target>
HIF/HIF Prolyl-Hydroxylase

>  <Saltdate>


>  <Smiles>
O=C(C1=CC=C(CN2CCOCC2)C=C1)NC3=CC=C(C=C3)I

>  <Solvent>
DMSO Solution

>  <Batch No.>
311566

>  <Quantity>
10mM  * 50uL

>  <Pathway>
Metabolic Enzyme/Protease

>  <Synonyms>


>  <Formula>
C18H19IN2O2

>  <Research_Area>
Cancer

>  <Clinical_Information>
No Development Reported

>  <SUPPLIER>
MedChemExpress

$$$$
Untitled Document
  ChemDraw08042213102D

 37 39  0  0  0  0  0  0  0  0999 V2000
   -5.3585    0.2062    0.0000 N   0  0  0  0  0  0  0  0  0  0  0  0
   -4.6441    0.6187    0.0000 C   0  0  0  0  0  0  0  0  0  0  0  0
   -3.9296    0.2062    0.0000 O   0  0  0  0  0  0  0  0  0  0  0  0
   -3.2151    0.6187    0.0000 C   0  0  0  0  0  0  0  0  0  0  0  0
   -2.5006    0.2062    0.0000 C   0  0  0  0  0  0  0  0  0  0  0  0
   -2.5006   -0.6187    0.0000 C   0  0  0  0  0  0  0  0  0  0  0  0
   -1.7862   -1.0313    0.0000 C   0  0  0  0  0  0  0  0  0  0  0  0
   -1.0717   -0.6187    0.0000 C   0  0  0  0  0  0  0  0  0  0  0  0
   -0.3572   -1.0313    0.0000 C   0  0  0  0  0  0  0  0  0  0  0  0
    0.3572   -0.6187    0.0000 N   0  0  0  0  0  0  0  0  0  0  0  0
    1.0717   -1.0313    0.0000 C   0  0  0  0  0  0  0  0  0  0  0  0
    1.7862   -0.6187    0.0000 C   0  0  0  0  0  0  0  0  0  0  0  0
    2.5006   -1.0313    0.0000 C   0  0  0  0  0  0  0  0  0  0  0  0
    3.2151   -0.6187    0.0000 C   0  0  0  0  0  0  0  0  0  0  0  0
    3.9296   -1.0313    0.0000 N   0  0  0  0  0  0  0  0  0  0  0  0
    4.6441   -0.6187    0.0000 C   0  0  0  0  0  0  0  0  0  0  0  0
    5.3585   -1.0313    0.0000 C   0  0  0  0  0  0  0  0  0  0  0  0
    6.0730   -0.6187    0.0000 C   0  0  0  0  0  0  0  0  0  0  0  0
    6.7875   -1.0313    0.0000 C   0  0  0  0  0  0  0  0  0  0  0  0
    7.5019   -0.6187    0.0000 O   0  0  0  0  0  0  0  0  0  0  0  0
    8.2164   -1.0313    0.0000 C   0  0  0  0  0  0  0  0  0  0  0  0
    6.7875   -1.8563    0.0000 O   0  0  0  0  0  0  0  0  0  0  0  0
    4.6441    0.2062    0.0000 O   0  0  0  0  0  0  0  0  0  0  0  0
    3.9296   -1.8563    0.0000 O   0  0  0  0  0  0  0  0  0  0  0  0
   -1.0717    0.2062    0.0000 C   0  0  0  0  0  0  0  0  0  0  0  0
   -1.7862    0.6187    0.0000 C   0  0  0  0  0  0  0  0  0  0  0  0
   -4.6441    1.4437    0.0000 O   0  0  0  0  0  0  0  0  0  0  0  0
   -6.0730    0.6187    0.0000 C   0  0  0  0  0  0  0  0  0  0  0  0
   -6.7875    0.2062    0.0000 C   0  0  0  0  0  0  0  0  0  0  0  0
   -7.5019    0.6187    0.0000 C   0  0  0  0  0  0  0  0  0  0  0  0
   -7.5019    1.4437    0.0000 C   0  0  0  0  0  0  0  0  0  0  0  0
   -6.7875    1.8563    0.0000 C   0  0  0  0  0  0  0  0  0  0  0  0
   -6.0730    1.4437    0.0000 C   0  0  0  0  0  0  0  0  0  0  0  0
   -8.2164    0.2062    0.0000 C   0  0  0  0  0  0  0  0  0  0  0  0
   -8.2164   -0.6187    0.0000 C   0  0  0  0  0  0  0  0  0  0  0  0
   -7.5019   -1.0313    0.0000 C   0  0  0  0  0  0  0  0  0  0  0  0
   -6.7875   -0.6187    0.0000 C   0  0  0  0  0  0  0  0  0  0  0  0
  1  2  1  0      
  2  3  1  0      
  3  4  1  0      
  4  5  1  0      
  5  6  2  0      
  6  7  1  0      
  7  8  2  0      
  8  9  1  0      
  9 10  1  0      
 10 11  1  0      
 11 12  1  0      
 12 13  1  0      
 13 14  1  0      
 14 15  1  0      
 15 16  1  0      
 16 17  1  0      
 17 18  2  0      
 18 19  1  0      
 19 20  1  0      
 20 21  1  0      
 19 22  2  0      
 16 23  2  0      
 15 24  1  0      
  8 25  1  0      
 25 26  2  0      
  5 26  1  0      
  2 27  2  0      
  1 28  1  0      
 28 29  1  0      
 29 30  2  0      
 30 31  1  0      
 31 32  2  0      
 32 33  1  0      
 28 33  2  0      
 30 34  1  0      
 34 35  2  0      
 35 36  1  0      
 36 37  2  0      
 29 37  1  0      
M  END

>  <RackCode>
HYCPK72334

>  <Cat. No.>
HY-15221

>  <Product Name>
Methylstat

>  <ROW>
E

>  <COLUMN>
7

>  <CAS No.>
1310877-95-2

>  <MWt>
505.56

>  <Target>
Apoptosis; Histone Demethylase; MDM-2/p53

>  <Saltdate>


>  <Smiles>
COC(/C=C/C(N(O)CCCCNCC(C=C1)=CC=C1COC(NC2=CC=CC3=C2C=CC=C3)=O)=O)=O

>  <Solvent>
DMSO Solution

>  <Batch No.>
243607

>  <Quantity>
10mM  * 50uL

>  <Pathway>
Apoptosis; Epigenetics

>  <Synonyms>


>  <Formula>
C28H31N3O6

>  <Research_Area>
Cancer; Cardiovascular Disease

>  <Clinical_Information>
No Development Reported

>  <SUPPLIER>
MedChemExpress

$$$$
Untitled Document
  ChemDraw04222209572D

 22 24  0  0  0  0  0  0  0  0999 V2000
   -1.3527   -2.8303    0.0000 C   0  0  0  0  0  0  0  0  0  0  0  0
   -1.4975   -2.0181    0.0000 O   0  0  0  0  0  0  0  0  0  0  0  0
   -0.8665   -1.4866    0.0000 C   0  0  0  0  0  0  0  0  0  0  0  0
   -0.0908   -1.7674    0.0000 O   0  0  0  0  0  0  0  0  0  0  0  0
   -1.0113   -0.6744    0.0000 C   0  0  0  0  0  0  0  0  0  0  0  0
   -0.4393   -0.0799    0.0000 C   0  0  0  0  0  0  0  0  0  0  0  0
    0.3778   -0.1932    0.0000 C   0  0  0  0  0  0  0  0  0  0  0  0
    0.8845    0.4579    0.0000 C   0  0  0  0  0  0  0  0  0  0  0  0
    0.6556    1.2505    0.0000 S   0  0  0  0  0  0  0  0  0  0  0  0
    1.3387    1.7131    0.0000 C   0  0  0  0  0  0  0  0  0  0  0  0
    1.3660    2.5376    0.0000 S   0  0  0  0  0  0  0  0  0  0  0  0
    1.9898    1.2064    0.0000 N   0  0  0  0  0  0  0  0  0  0  0  0
    1.7091    0.4306    0.0000 C   0  0  0  0  0  0  0  0  0  0  0  0
    2.1717   -0.2525    0.0000 O   0  0  0  0  0  0  0  0  0  0  0  0
   -0.8280    0.6478    0.0000 C   0  0  0  0  0  0  0  0  0  0  0  0
   -1.6402    0.5030    0.0000 C   0  0  0  0  0  0  0  0  0  0  0  0
   -2.1717    1.1340    0.0000 C   0  0  0  0  0  0  0  0  0  0  0  0
   -1.8910    1.9098    0.0000 C   0  0  0  0  0  0  0  0  0  0  0  0
   -1.0788    2.0546    0.0000 C   0  0  0  0  0  0  0  0  0  0  0  0
   -0.7981    2.8303    0.0000 F   0  0  0  0  0  0  0  0  0  0  0  0
   -0.5473    1.4236    0.0000 C   0  0  0  0  0  0  0  0  0  0  0  0
   -1.7535   -0.3142    0.0000 N   0  0  0  0  0  0  0  0  0  0  0  0
  1  2  1  0      
  2  3  1  0      
  3  4  2  0      
  3  5  1  0      
  5  6  2  0      
  6  7  1  0      
  7  8  2  0      
  8  9  1  0      
  9 10  1  0      
 10 11  2  0      
 10 12  1  0      
 12 13  1  0      
  8 13  1  0      
 13 14  2  0      
  6 15  1  0      
 15 16  2  0      
 16 17  1  0      
 17 18  2  0      
 18 19  1  0      
 19 20  1  0      
 19 21  2  0      
 15 21  1  0      
 16 22  1  0      
  5 22  1  0      
M  END

>  <RackCode>
HYCPK72334

>  <Cat. No.>
HY-146548

>  <Product Name>
Anticancer agent 43

>  <ROW>
F

>  <COLUMN>
7

>  <CAS No.>
2470015-35-9

>  <MWt>
336.36

>  <Target>
Apoptosis; Bcl-2 Family; Caspase; PARP

>  <Saltdate>


>  <Smiles>
COC(C1=C(C2=C(N1)C=CC(F)=C2)/C=C3SC(NC\3=O)=S)=O

>  <Solvent>
DMSO Solution

>  <Batch No.>
305830

>  <Quantity>
10mM  * 50uL

>  <Pathway>
Apoptosis; Cell Cycle/DNA Damage; Epigenetics

>  <Synonyms>


>  <Formula>
C14H9FN2O3S2

>  <Research_Area>
Cancer

>  <Clinical_Information>
No Development Reported

>  <SUPPLIER>
MedChemExpress

$$$$
Untitled Document
  ChemDraw07061713192D

 47 49  0  0  0  0  0  0  0  0999 V2000
    0.5575   -3.8702    0.0000 H   0  0  0  0  0  0  0  0  0  0  0  0
    1.3796   -3.8702    0.0000 Cl  0  0  0  0  0  0  0  0  0  0  0  0
    1.4534    0.9827    0.0000 C   0  0  0  0  0  0  0  0  0  0  0  0
    0.7389    1.3952    0.0000 C   0  0  0  0  0  0  0  0  0  0  0  0
    0.7389    2.2202    0.0000 C   0  0  0  0  0  0  0  0  0  0  0  0
    1.4534    2.6327    0.0000 C   0  0  0  0  0  0  0  0  0  0  0  0
    2.1678    2.2202    0.0000 C   0  0  0  0  0  0  0  0  0  0  0  0
    2.1678    1.3952    0.0000 C   0  0  0  0  0  0  0  0  0  0  0  0
    1.4534    0.1577    0.0000 S   0  0  0  0  0  0  0  0  0  0  0  0
    2.2784    0.1577    0.0000 O   0  0  0  0  0  0  0  0  0  0  0  0
    0.6284    0.1577    0.0000 O   0  0  0  0  0  0  0  0  0  0  0  0
    1.4534   -0.6673    0.0000 N   0  0  0  0  0  0  0  0  0  0  0  0
    1.4534    3.4577    0.0000 O   0  0  0  0  0  0  0  0  0  0  0  0
    2.1678    3.8702    0.0000 C   0  0  0  0  0  0  0  0  0  0  0  0
    0.0244    2.6327    0.0000 O   0  0  0  0  0  0  0  0  0  0  0  0
   -0.6900    2.2202    0.0000 C   0  0  0  0  0  0  0  0  0  0  0  0
    4.8663   -1.4923    0.0000 C   0  0  0  0  0  0  0  0  0  0  0  0
    4.3814   -0.8249    0.0000 N   0  0  0  0  0  0  0  0  0  0  0  0
    3.5968   -1.0798    0.0000 C   0  0  0  0  0  0  0  0  0  0  0  0
    3.5968   -1.9048    0.0000 C   0  0  0  0  0  0  0  0  0  0  0  0
    4.3814   -2.1598    0.0000 N   0  0  0  0  0  0  0  0  0  0  0  0
    2.8823   -0.6673    0.0000 C   0  0  0  0  0  0  0  0  0  0  0  0
    2.1678   -1.0798    0.0000 C   0  0  0  0  0  0  0  0  0  0  0  0
    2.1678   -1.9048    0.0000 C   0  0  0  0  0  0  0  0  0  0  0  0
    2.8823   -2.3173    0.0000 C   0  0  0  0  0  0  0  0  0  0  0  0
    5.6913   -1.4923    0.0000 O   0  0  0  0  0  0  0  0  0  0  0  0
    4.6364   -0.0403    0.0000 C   0  0  0  0  0  0  0  0  0  0  0  0
    4.6364   -2.9444    0.0000 C   0  0  0  0  0  0  0  0  0  0  0  0
    1.4534   -2.3173    0.0000 O   0  0  0  0  0  0  0  0  0  0  0  0
    0.7389   -1.9048    0.0000 C   0  0  0  0  0  0  0  0  0  0  0  0
    0.0244   -2.3173    0.0000 C   0  0  0  0  0  0  0  0  0  0  0  0
   -0.6900   -1.9048    0.0000 C   0  0  0  0  0  0  0  0  0  0  0  0
   -0.6900   -1.0798    0.0000 C   0  0  0  0  0  0  0  0  0  0  0  0
    0.0244   -0.6673    0.0000 C   0  0  0  0  0  0  0  0  0  0  0  0
    0.7389   -1.0798    0.0000 C   0  0  0  0  0  0  0  0  0  0  0  0
    0.0244    0.1577    0.0000 O   0  0  0  0  0  0  0  0  0  0  0  0
   -0.6900    0.5702    0.0000 C   0  0  0  0  0  0  0  0  0  0  0  0
   -0.6900    1.3952    0.0000 C   0  0  0  0  0  0  0  0  0  0  0  0
   -1.4045    1.8077    0.0000 C   0  0  0  0  0  0  0  0  0  0  0  0
   -1.4045   -2.3173    0.0000 O   0  0  0  0  0  0  0  0  0  0  0  0
   -2.1190   -1.9048    0.0000 C   0  0  0  0  0  0  0  0  0  0  0  0
   -2.8335   -2.3173    0.0000 C   0  0  0  0  0  0  0  0  0  0  0  0
   -3.5479   -1.9048    0.0000 C   0  0  0  0  0  0  0  0  0  0  0  0
   -4.2624   -2.3173    0.0000 C   0  0  0  0  0  0  0  0  0  0  0  0
   -4.9769   -1.9048    0.0000 N   0  0  0  0  0  0  0  0  0  0  0  0
   -5.6913   -2.3173    0.0000 C   0  0  0  0  0  0  0  0  0  0  0  0
   -4.9769   -1.0798    0.0000 C   0  0  0  0  0  0  0  0  0  0  0  0
  1  2  1  0      
  3  4  1  0      
  4  5  2  0      
  5  6  1  0      
  6  7  2  0      
  7  8  1  0      
  3  8  2  0      
  9 10  2  0      
  9 11  2  0      
  9 12  1  0      
  3  9  1  0      
 13 14  1  0      
  6 13  1  0      
 15 16  1  0      
  5 15  1  0      
 17 18  1  0      
 18 19  1  0      
 19 20  1  0      
 20 21  1  0      
 17 21  1  0      
 22 23  1  0      
 23 24  2  0      
 24 25  1  0      
 20 25  2  0      
 19 22  2  0      
 17 26  2  0      
 18 27  1  0      
 21 28  1  0      
 30 31  1  0      
 31 32  2  0      
 32 33  1  0      
 33 34  2  0      
 34 35  1  0      
 30 35  2  0      
 29 30  1  0      
 37 38  1  0      
 38 39  1  0      
 36 37  1  0      
 34 36  1  0      
 41 42  1  0      
 42 43  1  0      
 43 44  1  0      
 40 41  1  0      
 45 46  1  0      
 45 47  1  0      
 44 45  1  0      
 32 40  1  0      
 24 29  1  0      
 12 23  1  0      
M  END

>  <RackCode>
HYCPK72334

>  <Cat. No.>
HY-102000B

>  <Product Name>
IACS-9571 (hydrochloride)

>  <ROW>
G

>  <COLUMN>
7

>  <CAS No.>
2319611-93-1

>  <MWt>
679.22

>  <Target>
Epigenetic Reader Domain

>  <Saltdate>
Hydrochloride

>  <Smiles>
[H]Cl.O=S(C1=CC=C(OC)C(OC)=C1)(NC2=C(OC3=CC(OCCC)=CC(OCCCCN(C)C)=C3)C=C(N4C)C(N(C)C4=O)=C2)=O

>  <Solvent>
DMSO Solution

>  <Batch No.>
26761

>  <Quantity>
10mM  * 50uL

>  <Pathway>
Epigenetics

>  <Synonyms>
ASIS-P040 (hydrochloride)

>  <Formula>
C32H43ClN4O8S

>  <Research_Area>
Cancer

>  <Clinical_Information>
No Development Reported

>  <SUPPLIER>
MedChemExpress

$$$$
Untitled Document
  ChemDraw09261608522D

 29 31  0  0  0  0  0  0  0  0999 V2000
   -0.0974    0.4125    0.0000 C   0  0  0  0  0  0  0  0  0  0  0  0
   -0.8119    0.0000    0.0000 C   0  0  0  0  0  0  0  0  0  0  0  0
   -0.0974    1.2375    0.0000 O   0  0  0  0  0  0  0  0  0  0  0  0
    0.6171    0.0000    0.0000 N   0  0  0  0  0  0  0  0  0  0  0  0
    1.3315    0.4125    0.0000 C   0  0  0  0  0  0  0  0  0  0  0  0
    2.1322   -0.8205    0.0000 O   0  0  0  0  0  0  0  0  0  0  0  0
    2.9391   -0.9920    0.0000 N   0  0  0  0  0  0  0  0  0  0  0  0
    3.3516   -0.2775    0.0000 C   0  0  0  0  0  0  0  0  0  0  0  0
    2.7996    0.3356    0.0000 N   0  0  0  0  0  0  0  0  0  0  0  0
    2.0459    0.0000    0.0000 C   0  0  0  0  0  0  0  0  0  0  0  0
    4.5077    0.5624    0.0000 C   0  0  0  0  0  0  0  0  0  0  0  0
    4.1721   -0.1913    0.0000 C   0  0  0  0  0  0  0  0  0  0  0  0
    4.6570   -0.8587    0.0000 C   0  0  0  0  0  0  0  0  0  0  0  0
    5.4774   -0.7725    0.0000 C   0  0  0  0  0  0  0  0  0  0  0  0
    5.8130   -0.0188    0.0000 C   0  0  0  0  0  0  0  0  0  0  0  0
    5.3280    0.6486    0.0000 N   0  0  0  0  0  0  0  0  0  0  0  0
   -1.5263    0.4125    0.0000 O   0  0  0  0  0  0  0  0  0  0  0  0
   -2.2407    0.0000    0.0000 C   0  0  0  0  0  0  0  0  0  0  0  0
   -2.9552    0.4125    0.0000 C   0  0  0  0  0  0  0  0  0  0  0  0
   -3.6697    0.0000    0.0000 C   0  0  0  0  0  0  0  0  0  0  0  0
   -3.6697   -0.8250    0.0000 C   0  0  0  0  0  0  0  0  0  0  0  0
   -2.9552   -1.2375    0.0000 C   0  0  0  0  0  0  0  0  0  0  0  0
   -2.2407   -0.8250    0.0000 C   0  0  0  0  0  0  0  0  0  0  0  0
   -4.3841   -1.2375    0.0000 C   0  0  0  0  0  0  0  0  0  0  0  0
   -5.0985   -0.8250    0.0000 C   0  0  0  0  0  0  0  0  0  0  0  0
   -5.8130   -1.2375    0.0000 C   0  0  0  0  0  0  0  0  0  0  0  0
    0.6171   -0.8250    0.0000 C   0  0  0  0  0  0  0  0  0  0  0  0
    1.3315   -1.2375    0.0000 C   0  0  0  0  0  0  0  0  0  0  0  0
   -0.0974   -1.2375    0.0000 C   0  0  0  0  0  0  0  0  0  0  0  0
  1  2  1  0      
  1  3  2  0      
  1  4  1  0      
  6  7  1  0      
  7  8  2  0      
  8  9  1  0      
  9 10  2  0      
  6 10  1  0      
 11 12  1  0      
 12 13  2  0      
 13 14  1  0      
 14 15  2  0      
 15 16  1  0      
 11 16  2  0      
  8 12  1  0      
  5 10  1  0      
  4  5  1  0      
 18 19  1  0      
 19 20  2  0      
 20 21  1  0      
 21 22  2  0      
 22 23  1  0      
 18 23  2  0      
 17 18  1  0      
 24 25  1  0      
 25 26  1  0      
 21 24  1  0      
  2 17  1  0      
 27 28  1  0      
 27 29  1  0      
  4 27  1  0      
M  END

>  <RackCode>
HYCPK72334

>  <Cat. No.>
HY-12286

>  <Product Name>
PI-1840

>  <ROW>
H

>  <COLUMN>
7

>  <CAS No.>
1401223-22-0

>  <MWt>
394.47

>  <Target>
Apoptosis; Autophagy; Bcl-2 Family; Caspase; NF-¦ÊB; PARP; Proteasome

>  <Saltdate>
Free Base

>  <Smiles>
O=C(N(C(C)C)CC1=NC(C2=CC=CN=C2)=NO1)COC3=CC=C(CCC)C=C3

>  <Solvent>
DMSO Solution

>  <Batch No.>
15527

>  <Quantity>
10mM  * 50uL

>  <Pathway>
Apoptosis; Autophagy; Cell Cycle/DNA Damage; Epigenetics; Metabolic Enzyme/Protease; NF-¦ÊB

>  <Synonyms>


>  <Formula>
C22H26N4O3

>  <Research_Area>
Cancer

>  <Clinical_Information>
No Development Reported

>  <SUPPLIER>
MedChemExpress

$$$$
Untitled Document
  ChemDraw10252311062D

 35 38  0  0  0  0  0  0  0  0999 V2000
   -6.4304   -1.0313    0.0000 C   0  0  0  0  0  0  0  0  0  0  0  0
   -5.7160   -1.4437    0.0000 C   0  0  0  0  0  0  0  0  0  0  0  0
   -5.0014   -1.0313    0.0000 C   0  0  0  0  0  0  0  0  0  0  0  0
   -5.0014   -0.2062    0.0000 O   0  0  0  0  0  0  0  0  0  0  0  0
   -4.2869   -1.4437    0.0000 N   0  0  0  0  0  0  0  0  0  0  0  0
   -3.5725   -1.0313    0.0000 C   0  0  0  0  0  0  0  0  0  0  0  0
   -3.5725   -0.2062    0.0000 C   0  0  0  0  0  0  0  0  0  0  0  0
   -2.8580    0.2062    0.0000 C   0  0  0  0  0  0  0  0  0  0  0  0
   -2.1435   -0.2062    0.0000 C   0  0  0  0  0  0  0  0  0  0  0  0
   -2.1435   -1.0313    0.0000 C   0  0  0  0  0  0  0  0  0  0  0  0
   -1.4289   -1.4437    0.0000 O   0  0  0  0  0  0  0  0  0  0  0  0
   -0.7145   -1.0313    0.0000 C   0  0  0  0  0  0  0  0  0  0  0  0
    0.0000   -1.4437    0.0000 N   0  0  0  0  0  0  0  0  0  0  0  0
    0.7145   -1.0313    0.0000 C   0  0  0  0  0  0  0  0  0  0  0  0
    1.4289   -1.4437    0.0000 N   0  0  0  0  0  0  0  0  0  0  0  0
    2.1435   -1.0313    0.0000 C   0  0  0  0  0  0  0  0  0  0  0  0
    2.8580   -1.4437    0.0000 C   0  0  0  0  0  0  0  0  0  0  0  0
    3.5725   -1.0313    0.0000 C   0  0  0  0  0  0  0  0  0  0  0  0
    3.5725   -0.2062    0.0000 C   0  0  0  0  0  0  0  0  0  0  0  0
    4.2869    0.2062    0.0000 N   0  0  0  0  0  0  0  0  0  0  0  0
    5.0014   -0.2062    0.0000 C   0  0  0  0  0  0  0  0  0  0  0  0
    5.7160    0.2062    0.0000 C   0  0  0  0  0  0  0  0  0  0  0  0
    5.7160    1.0313    0.0000 N   0  0  0  0  0  0  0  0  0  0  0  0
    6.4304    1.4437    0.0000 C   0  0  0  0  0  0  0  0  0  0  0  0
    5.0014    1.4437    0.0000 C   0  0  0  0  0  0  0  0  0  0  0  0
    4.2869    1.0313    0.0000 C   0  0  0  0  0  0  0  0  0  0  0  0
    2.8580    0.2062    0.0000 C   0  0  0  0  0  0  0  0  0  0  0  0
    2.1435   -0.2062    0.0000 C   0  0  0  0  0  0  0  0  0  0  0  0
    1.4289    0.2062    0.0000 O   0  0  0  0  0  0  0  0  0  0  0  0
    1.4289    1.0313    0.0000 C   0  0  0  0  0  0  0  0  0  0  0  0
    0.7145   -0.2062    0.0000 N   0  0  0  0  0  0  0  0  0  0  0  0
    0.0000    0.2062    0.0000 C   0  0  0  0  0  0  0  0  0  0  0  0
   -0.7145   -0.2062    0.0000 C   0  0  0  0  0  0  0  0  0  0  0  0
   -1.4289    0.2062    0.0000 I   0  0  0  0  0  0  0  0  0  0  0  0
   -2.8580   -1.4437    0.0000 C   0  0  0  0  0  0  0  0  0  0  0  0
  1  2  1  0      
  2  3  1  0      
  3  4  2  0      
  3  5  1  0      
  5  6  1  0      
  6  7  2  0      
  7  8  1  0      
  8  9  2  0      
  9 10  1  0      
 10 11  1  0      
 11 12  1  0      
 12 13  2  0      
 13 14  1  0      
 14 15  1  0      
 15 16  1  0      
 16 17  2  0      
 17 18  1  0      
 18 19  2  0      
 19 20  1  0      
 20 21  1  0      
 21 22  1  0      
 22 23  1  0      
 23 24  1  0      
 23 25  1  0      
 25 26  1  0      
 20 26  1  0      
 19 27  1  0      
 27 28  2  0      
 16 28  1  0      
 28 29  1  0      
 29 30  1  0      
 14 31  2  0      
 31 32  1  0      
 32 33  2  0      
 12 33  1  0      
 33 34  1  0      
 10 35  2  0      
  6 35  1  0      
M  END

>  <RackCode>
HYCPK72334

>  <Cat. No.>
HY-156397

>  <Product Name>
HTH-02-006

>  <ROW>
I

>  <COLUMN>
7

>  <CAS No.>


>  <MWt>
588.44

>  <Target>
AMPK

>  <Saltdate>


>  <Smiles>
CCC(NC1=CC=CC(OC2=NC(NC3=CC=C(C=C3OC)N4CCN(CC4)C)=NC=C2I)=C1)=O

>  <Solvent>
DMSO Solution

>  <Batch No.>
394270

>  <Quantity>
10mM  * 50uL

>  <Pathway>
Epigenetics; PI3K/Akt/mTOR

>  <Synonyms>


>  <Formula>
C25H29IN6O3

>  <Research_Area>
Cancer; Inflammation/Immunology

>  <Clinical_Information>
No Development Reported

>  <SUPPLIER>
MedChemExpress

$$$$
Untitled Document
  ChemDraw04171713552D

 24 26  0  0  0  0  0  0  0  0999 V2000
   -3.5724    1.0313    0.0000 C   0  0  0  0  0  0  0  0  0  0  0  0
   -3.5724    0.2062    0.0000 C   0  0  0  0  0  0  0  0  0  0  0  0
   -2.8579   -0.2062    0.0000 C   0  0  0  0  0  0  0  0  0  0  0  0
   -2.1434    0.2062    0.0000 C   0  0  0  0  0  0  0  0  0  0  0  0
   -2.1434    1.0313    0.0000 C   0  0  0  0  0  0  0  0  0  0  0  0
   -2.8579    1.4437    0.0000 C   0  0  0  0  0  0  0  0  0  0  0  0
   -1.4289   -0.2062    0.0000 C   0  0  0  0  0  0  0  0  0  0  0  0
   -0.7145    0.2062    0.0000 N   0  0  0  0  0  0  0  0  0  0  0  0
   -0.0000   -0.2062    0.0000 C   0  0  0  0  0  0  0  0  0  0  0  0
   -0.0000   -1.0313    0.0000 N   0  0  0  0  0  0  0  0  0  0  0  0
    0.7145   -1.4437    0.0000 C   0  0  0  0  0  0  0  0  0  0  0  0
    1.4289   -1.0313    0.0000 C   0  0  0  0  0  0  0  0  0  0  0  0
    1.4289   -0.2062    0.0000 C   0  0  0  0  0  0  0  0  0  0  0  0
    0.7145    0.2062    0.0000 N   0  0  0  0  0  0  0  0  0  0  0  0
    2.1434   -1.4438    0.0000 C   0  0  0  0  0  0  0  0  0  0  0  0
    2.1434   -2.2688    0.0000 O   0  0  0  0  0  0  0  0  0  0  0  0
    2.8579   -1.0313    0.0000 N   0  0  0  0  0  0  0  0  0  0  0  0
    3.5724   -1.4438    0.0000 O   0  0  0  0  0  0  0  0  0  0  0  0
   -2.8579    2.2688    0.0000 F   0  0  0  0  0  0  0  0  0  0  0  0
   -2.1434   -0.6188    0.0000 C   0  0  0  0  0  0  0  0  0  0  0  0
   -2.1434   -1.4438    0.0000 C   0  0  0  0  0  0  0  0  0  0  0  0
   -1.4289   -1.8563    0.0000 C   0  0  0  0  0  0  0  0  0  0  0  0
   -0.7145   -1.4438    0.0000 C   0  0  0  0  0  0  0  0  0  0  0  0
   -0.7145   -0.6188    0.0000 C   0  0  0  0  0  0  0  0  0  0  0  0
  1  2  2  0      
  2  3  1  0      
  3  4  2  0      
  4  5  1  0      
  5  6  2  0      
  6  1  1  0      
  4  7  1  0      
  7  8  1  0      
  8  9  1  0      
  9 10  2  0      
 10 11  1  0      
 11 12  2  0      
 12 13  1  0      
 13 14  2  0      
 14  9  1  0      
 12 15  1  0      
 15 16  2  0      
 15 17  1  0      
 17 18  1  0      
  6 19  1  0      
  7 20  1  0      
 20 21  1  0      
 21 22  1  0      
 22 23  1  0      
 23 24  1  0      
 24  7  1  0      
M  END

>  <RackCode>
HYCPK72334

>  <Cat. No.>
HY-19328

>  <Product Name>
ACY-775

>  <ROW>
J

>  <COLUMN>
7

>  <CAS No.>
1375466-18-4

>  <MWt>
330.36

>  <Target>
HDAC

>  <Saltdate>
Free Base

>  <Smiles>
O=C(NO)C(C=N1)=CN=C1NC2(CCCCC2)C3=CC=CC(F)=C3

>  <Solvent>
DMSO Solution

>  <Batch No.>
26227

>  <Quantity>
10mM  * 50uL

>  <Pathway>
Cell Cycle/DNA Damage; Epigenetics

>  <Synonyms>


>  <Formula>
C17H19FN4O2

>  <Research_Area>
Neurological Disease; Cardiovascular Disease

>  <Clinical_Information>
No Development Reported

>  <SUPPLIER>
MedChemExpress

$$$$
Untitled Document
  ChemDraw02112210052D

 35 40  0  0  0  0  0  0  0  0999 V2000
    4.1432    0.9019    0.0000 N   0  0  0  0  0  0  0  0  0  0  0  0
    4.6281    0.2345    0.0000 N   0  0  0  0  0  0  0  0  0  0  0  0
    4.1432   -0.4329    0.0000 C   0  0  0  0  0  0  0  0  0  0  0  0
    3.3585   -0.1780    0.0000 N   0  0  0  0  0  0  0  0  0  0  0  0
    2.6441   -0.5905    0.0000 C   0  0  0  0  0  0  0  0  0  0  0  0
    1.9296   -0.1780    0.0000 C   0  0  0  0  0  0  0  0  0  0  0  0
    1.9296    0.6470    0.0000 N   0  0  0  0  0  0  0  0  0  0  0  0
    2.6441    1.0595    0.0000 C   0  0  0  0  0  0  0  0  0  0  0  0
    2.6441    1.8845    0.0000 N   0  0  0  0  0  0  0  0  0  0  0  0
    3.3585    2.2970    0.0000 C   0  0  0  0  0  0  0  0  0  0  0  0
    3.3585    0.6470    0.0000 C   0  0  0  0  0  0  0  0  0  0  0  0
    1.2151   -0.5905    0.0000 C   0  0  0  0  0  0  0  0  0  0  0  0
    1.1289   -1.4110    0.0000 N   0  0  0  0  0  0  0  0  0  0  0  0
    0.3219   -1.5825    0.0000 C   0  0  0  0  0  0  0  0  0  0  0  0
   -0.0906   -2.2970    0.0000 C   0  0  0  0  0  0  0  0  0  0  0  0
   -0.9156   -2.2970    0.0000 C   0  0  0  0  0  0  0  0  0  0  0  0
   -1.3281   -1.5825    0.0000 C   0  0  0  0  0  0  0  0  0  0  0  0
   -0.9156   -0.8680    0.0000 C   0  0  0  0  0  0  0  0  0  0  0  0
   -0.0906   -0.8680    0.0000 C   0  0  0  0  0  0  0  0  0  0  0  0
    0.4615   -0.2550    0.0000 N   0  0  0  0  0  0  0  0  0  0  0  0
    0.2899    0.5520    0.0000 C   0  0  0  0  0  0  0  0  0  0  0  0
   -0.4947    0.8070    0.0000 C   0  0  0  0  0  0  0  0  0  0  0  0
   -0.6662    1.6139    0.0000 C   0  0  0  0  0  0  0  0  0  0  0  0
   -1.4508    1.8689    0.0000 C   0  0  0  0  0  0  0  0  0  0  0  0
   -2.0639    1.3168    0.0000 C   0  0  0  0  0  0  0  0  0  0  0  0
   -1.8924    0.5099    0.0000 C   0  0  0  0  0  0  0  0  0  0  0  0
   -1.1078    0.2549    0.0000 C   0  0  0  0  0  0  0  0  0  0  0  0
   -2.1531   -1.5825    0.0000 N   0  0  0  0  0  0  0  0  0  0  0  0
   -2.5656   -2.2970    0.0000 C   0  0  0  0  0  0  0  0  0  0  0  0
   -3.3906   -2.2970    0.0000 C   0  0  0  0  0  0  0  0  0  0  0  0
   -3.8031   -1.5825    0.0000 N   0  0  0  0  0  0  0  0  0  0  0  0
   -4.6281   -1.5825    0.0000 C   0  0  0  0  0  0  0  0  0  0  0  0
   -3.3906   -0.8680    0.0000 C   0  0  0  0  0  0  0  0  0  0  0  0
   -2.5656   -0.8680    0.0000 C   0  0  0  0  0  0  0  0  0  0  0  0
    4.3981   -1.2176    0.0000 C   0  0  0  0  0  0  0  0  0  0  0  0
  1  2  1  0      
  2  3  2  0      
  3  4  1  0      
  4  5  1  0      
  5  6  2  0      
  6  7  1  0      
  7  8  2  0      
  8  9  1  0      
  9 10  1  0      
  8 11  1  0      
  1 11  2  0      
  4 11  1  0      
  6 12  1  0      
 12 13  2  0      
 13 14  1  0      
 14 15  1  0      
 15 16  2  0      
 16 17  1  0      
 17 18  2  0      
 18 19  1  0      
 14 19  2  0      
 19 20  1  0      
 12 20  1  0      
 20 21  1  0      
 21 22  1  0      
 22 23  1  0      
 23 24  2  0      
 24 25  1  0      
 25 26  2  0      
 26 27  1  0      
 22 27  2  0      
 17 28  1  0      
 28 29  1  0      
 29 30  1  0      
 30 31  1  0      
 31 32  1  0      
 31 33  1  0      
 33 34  1  0      
 28 34  1  0      
  3 35  1  0      
M  END

>  <RackCode>
HYCPK72334

>  <Cat. No.>
HY-145550

>  <Product Name>
Amredobresib

>  <ROW>
K

>  <COLUMN>
7

>  <CAS No.>
1610044-98-8

>  <MWt>
467.57

>  <Target>
Epigenetic Reader Domain

>  <Saltdate>


>  <Smiles>
CNC1=NC(C2=NC3=C(N2CC4=CC=CC=C4)C=C(N5CCN(CC5)C)C=C3)=CN6C(C)=NN=C16

>  <Solvent>
DMSO Solution

>  <Batch No.>
238579

>  <Quantity>
10mM  * 50uL

>  <Pathway>
Epigenetics

>  <Synonyms>
BI894999

>  <Formula>
C26H29N9

>  <Research_Area>
Cancer

>  <Clinical_Information>
No Development Reported

>  <SUPPLIER>
MedChemExpress

$$$$
Untitled Document
  ChemDraw01221913182D

 16 16  0  0  0  0  0  0  0  0999 V2000
   -1.4289   -1.8562    0.0000 C   0  0  0  0  0  0  0  0  0  0  0  0
   -2.8579    0.6187    0.0000 C   0  0  0  0  0  0  0  0  0  0  0  0
    0.7145    1.0312    0.0000 C   0  0  0  0  0  0  0  0  0  0  0  0
    1.4289    0.6187    0.0000 C   0  0  0  0  0  0  0  0  0  0  0  0
   -0.0000   -0.2063    0.0000 C   0  0  0  0  0  0  0  0  0  0  0  0
   -0.7145    1.0312    0.0000 C   0  0  0  0  0  0  0  0  0  0  0  0
   -0.0000    0.6187    0.0000 C   0  0  0  0  0  0  0  0  0  0  0  0
   -0.7145   -0.6188    0.0000 C   0  0  0  0  0  0  0  0  0  0  0  0
   -1.4289    0.6187    0.0000 C   0  0  0  0  0  0  0  0  0  0  0  0
    2.1434    1.0312    0.0000 C   0  0  0  0  0  0  0  0  0  0  0  0
   -1.4289   -0.2063    0.0000 C   0  0  0  0  0  0  0  0  0  0  0  0
    2.1434    1.8562    0.0000 O   0  0  0  0  0  0  0  0  0  0  0  0
    2.8579    0.6187    0.0000 O   0  0  0  0  0  0  0  0  0  0  0  0
   -2.1434   -0.6188    0.0000 O   0  0  0  0  0  0  0  0  0  0  0  0
   -0.7145   -1.4438    0.0000 O   0  0  0  0  0  0  0  0  0  0  0  0
   -2.1434    1.0312    0.0000 O   0  0  0  0  0  0  0  0  0  0  0  0
  4  3  2  0      
  7  3  1  0      
  7  5  2  0      
  7  6  1  0      
  8  5  1  0      
  9  6  2  0      
 10  4  1  0      
 11  8  2  0      
 11  9  1  0      
 12 10  2  0      
 13 10  1  0      
 14 11  1  0      
 15  1  1  0      
 15  8  1  0      
 16  2  1  0      
 16  9  1  0      
M  END

>  <RackCode>
HYCPK72334

>  <Cat. No.>
HY-W009732

>  <Product Name>
Sinapinic acid

>  <ROW>
L

>  <COLUMN>
7

>  <CAS No.>
530-59-6

>  <MWt>
224.21

>  <Target>
Angiotensin-converting Enzyme (ACE); Apoptosis; HDAC; Reactive Oxygen Species

>  <Saltdate>
Free Acid

>  <Smiles>
COC1=C(O)C(OC)=CC(/C=C/C(O)=O)=C1

>  <Solvent>
DMSO Solution

>  <Batch No.>
159008

>  <Quantity>
10mM  * 50uL

>  <Pathway>
Apoptosis; Cell Cycle/DNA Damage; Epigenetics; Immunology/Inflammation; Metabolic Enzyme/Protease; NF-¦ÊB

>  <Synonyms>
Sinapic acid

>  <Formula>
C11H12O5

>  <Research_Area>
Cancer; Metabolic Disease; Cardiovascular Disease

>  <Clinical_Information>
No Development Reported

>  <SUPPLIER>
MedChemExpress

$$$$
Untitled Document
  ChemDraw04132309592D

 32 35  0  0  0  0  0  0  0  0999 V2000
    0.0797   -1.2375    0.0000 O   0  0  0  0  0  0  0  0  0  0  0  0
    0.7942   -0.8250    0.0000 C   0  0  0  0  0  0  0  0  0  0  0  0
    0.7942    0.0000    0.0000 C   0  0  0  0  0  0  0  0  0  0  0  0
    0.0797    0.4125    0.0000 C   0  0  0  0  0  0  0  0  0  0  0  0
   -0.6348    0.0000    0.0000 C   0  0  0  0  0  0  0  0  0  0  0  0
   -1.3492    0.4125    0.0000 C   0  0  0  0  0  0  0  0  0  0  0  0
   -2.0637    0.0000    0.0000 C   0  0  0  0  0  0  0  0  0  0  0  0
   -2.7782    0.4125    0.0000 C   0  0  0  0  0  0  0  0  0  0  0  0
   -3.4926    0.8250    0.0000 C   0  0  0  0  0  0  0  0  0  0  0  0
   -2.7782    1.2375    0.0000 C   0  0  0  0  0  0  0  0  0  0  0  0
   -3.4926    0.0000    0.0000 C   0  0  0  0  0  0  0  0  0  0  0  0
   -2.0637   -0.8250    0.0000 C   0  0  0  0  0  0  0  0  0  0  0  0
   -2.7782   -1.2375    0.0000 O   0  0  0  0  0  0  0  0  0  0  0  0
   -1.3492   -1.2375    0.0000 C   0  0  0  0  0  0  0  0  0  0  0  0
   -1.3492   -2.0625    0.0000 C   0  0  0  0  0  0  0  0  0  0  0  0
   -0.6348   -2.4750    0.0000 C   0  0  0  0  0  0  0  0  0  0  0  0
   -1.3492   -2.8875    0.0000 C   0  0  0  0  0  0  0  0  0  0  0  0
   -2.0637   -2.4750    0.0000 C   0  0  0  0  0  0  0  0  0  0  0  0
   -0.6348   -0.8250    0.0000 C   0  0  0  0  0  0  0  0  0  0  0  0
    0.0797    1.2375    0.0000 N   0  0  0  0  0  0  0  0  0  0  0  0
   -0.6348    1.6500    0.0000 C   0  0  0  0  0  0  0  0  0  0  0  0
   -0.6348    2.4750    0.0000 C   0  0  0  0  0  0  0  0  0  0  0  0
    0.0797    2.8875    0.0000 O   0  0  0  0  0  0  0  0  0  0  0  0
    0.7942    2.4750    0.0000 C   0  0  0  0  0  0  0  0  0  0  0  0
    0.7942    1.6500    0.0000 C   0  0  0  0  0  0  0  0  0  0  0  0
    1.5086    0.4125    0.0000 C   0  0  0  0  0  0  0  0  0  0  0  0
    2.2231    0.0000    0.0000 C   0  0  0  0  0  0  0  0  0  0  0  0
    3.0076    0.2549    0.0000 O   0  0  0  0  0  0  0  0  0  0  0  0
    3.4926   -0.4125    0.0000 C   0  0  0  0  0  0  0  0  0  0  0  0
    3.0076   -1.0799    0.0000 O   0  0  0  0  0  0  0  0  0  0  0  0
    2.2231   -0.8250    0.0000 C   0  0  0  0  0  0  0  0  0  0  0  0
    1.5086   -1.2375    0.0000 C   0  0  0  0  0  0  0  0  0  0  0  0
  1  2  1  0      
  2  3  2  0      
  3  4  1  0      
  4  5  1  0      
  5  6  2  0      
  6  7  1  0      
  7  8  1  0      
  8  9  1  0      
  8 10  1  0      
  8 11  1  0      
  7 12  2  0      
 12 13  1  0      
 12 14  1  0      
 14 15  1  0      
 15 16  1  0      
 15 17  1  0      
 15 18  1  0      
 14 19  2  0      
  5 19  1  0      
  4 20  1  0      
 20 21  1  0      
 21 22  1  0      
 22 23  1  0      
 23 24  1  0      
 24 25  1  0      
 20 25  1  0      
  3 26  1  0      
 26 27  2  0      
 27 28  1  0      
 28 29  1  0      
 29 30  1  0      
 27 31  1  0      
 30 31  1  0      
 31 32  2  0      
  2 32  1  0      
M  END

>  <RackCode>
HYCPK72334

>  <Cat. No.>
HY-120395

>  <Product Name>
UC-514321

>  <ROW>
M

>  <COLUMN>
7

>  <CAS No.>
299420-83-0

>  <MWt>
441.56

>  <Target>
Apoptosis; STAT; TET Protein

>  <Saltdate>


>  <Smiles>
OC1=C(C=C2OCOC2=C1)C(N3CCOCC3)C4=CC(C(C)(C)C)=C(C(C(C)(C)C)=C4)O

>  <Solvent>
DMSO Solution

>  <Batch No.>
64892

>  <Quantity>
10mM  * 50uL

>  <Pathway>
Apoptosis; Epigenetics; JAK/STAT Signaling; Stem Cell/Wnt

>  <Synonyms>


>  <Formula>
C26H35NO5

>  <Research_Area>
Cancer; Inflammation/Immunology

>  <Clinical_Information>
No Development Reported

>  <SUPPLIER>
MedChemExpress

$$$$
Untitled Document
  ChemDraw12121616452D

 27 30  0  0  0  0  0  0  0  0999 V2000
    1.0717    0.2062    0.0000 C   0  0  0  0  0  0  0  0  0  0  0  0
    1.7861   -0.2062    0.0000 C   0  0  0  0  0  0  0  0  0  0  0  0
    1.7861   -1.0313    0.0000 C   0  0  0  0  0  0  0  0  0  0  0  0
    1.0717   -1.4438    0.0000 C   0  0  0  0  0  0  0  0  0  0  0  0
    0.3572   -1.0313    0.0000 N   0  3  0  0  0  0  0  0  0  0  0  0
   -0.3572   -1.4438    0.0000 C   0  0  0  0  0  0  0  0  0  0  0  0
   -1.0717   -1.0313    0.0000 C   0  0  0  0  0  0  0  0  0  0  0  0
   -1.0717   -0.2062    0.0000 C   0  0  0  0  0  0  0  0  0  0  0  0
   -0.3572    0.2062    0.0000 C   0  0  0  0  0  0  0  0  0  0  0  0
    0.3572   -0.2062    0.0000 C   0  0  0  0  0  0  0  0  0  0  0  0
    2.5005    0.2062    0.0000 C   0  0  0  0  0  0  0  0  0  0  0  0
    2.5005    1.0313    0.0000 C   0  0  0  0  0  0  0  0  0  0  0  0
    1.7861    1.4438    0.0000 C   0  0  0  0  0  0  0  0  0  0  0  0
    1.0717    1.0313    0.0000 C   0  0  0  0  0  0  0  0  0  0  0  0
   -1.7861    0.2062    0.0000 C   0  0  0  0  0  0  0  0  0  0  0  0
   -2.5005   -0.2062    0.0000 C   0  0  0  0  0  0  0  0  0  0  0  0
   -2.5005   -1.0313    0.0000 C   0  0  0  0  0  0  0  0  0  0  0  0
   -1.7861   -1.4438    0.0000 C   0  0  0  0  0  0  0  0  0  0  0  0
   -0.3572    1.0313    0.0000 C   0  0  0  0  0  0  0  0  0  0  0  0
   -3.2150   -1.4438    0.0000 O   0  0  0  0  0  0  0  0  0  0  0  0
   -3.9295   -1.0313    0.0000 C   0  0  0  0  0  0  0  0  0  0  0  0
   -1.7861   -2.2687    0.0000 O   0  0  0  0  0  0  0  0  0  0  0  0
   -2.5005   -2.6812    0.0000 C   0  0  0  0  0  0  0  0  0  0  0  0
    3.2150    1.4438    0.0000 O   0  0  0  0  0  0  0  0  0  0  0  0
    3.9295    1.0313    0.0000 C   0  0  0  0  0  0  0  0  0  0  0  0
    1.7861    2.2687    0.0000 O   0  0  0  0  0  0  0  0  0  0  0  0
    2.5005    2.6812    0.0000 C   0  0  0  0  0  0  0  0  0  0  0  0
  1  2  1  0      
  2  3  1  0      
  3  4  1  0      
  4  5  1  0      
  5  6  1  0      
  6  7  2  0      
  7  8  1  0      
  8  9  2  0      
  9 10  1  0      
  5 10  2  0      
  1 10  1  0      
 11 12  1  0      
 12 13  2  0      
 13 14  1  0      
  1 14  2  0      
  2 11  2  0      
 15 16  2  0      
 16 17  1  0      
 17 18  2  0      
  7 18  1  0      
  8 15  1  0      
  9 19  1  0      
 20 21  1  0      
 17 20  1  0      
 22 23  1  0      
 18 22  1  0      
 24 25  1  0      
 12 24  1  0      
 26 27  1  0      
 13 26  1  0      
M  CHG  1   5   1
M  END

>  <RackCode>
HYCPK72334

>  <Cat. No.>
HY-N0674

>  <Product Name>
Dehydrocorydaline

>  <ROW>
N

>  <COLUMN>
7

>  <CAS No.>
30045-16-0

>  <MWt>
366.43

>  <Target>
Autophagy; Bcl-2 Family; Caspase; p38 MAPK; Parasite; PARP

>  <Saltdate>
Free Base

>  <Smiles>
CC1=C(C=CC(OC)=C2OC)C2=C[N+]3=C1C4=CC(OC)=C(OC)C=C4CC3

>  <Solvent>
DMSO Solution

>  <Batch No.>
450623

>  <Quantity>
10mM  * 50uL

>  <Pathway>
Anti-infection; Apoptosis; Autophagy; Cell Cycle/DNA Damage; Epigenetics; MAPK/ERK Pathway

>  <Synonyms>
13-Methylpalmatine

>  <Formula>
C22H24NO4+

>  <Research_Area>
Cancer; Infection

>  <Clinical_Information>
No Development Reported

>  <SUPPLIER>
MedChemExpress

$$$$
Untitled Document
  ChemDraw07092114532D

 38 42  0  0  0  0  0  0  0  0999 V2000
   -6.0045    0.6782    0.0000 C   0  0  0  0  0  0  0  0  0  0  0  0
   -6.0045   -0.1468    0.0000 C   0  0  0  0  0  0  0  0  0  0  0  0
   -5.2901   -0.5593    0.0000 C   0  0  0  0  0  0  0  0  0  0  0  0
   -4.5756   -0.1468    0.0000 C   0  0  0  0  0  0  0  0  0  0  0  0
   -4.5756    0.6782    0.0000 C   0  0  0  0  0  0  0  0  0  0  0  0
   -5.2901    1.0907    0.0000 C   0  0  0  0  0  0  0  0  0  0  0  0
   -6.7190   -0.5593    0.0000 C   0  0  0  0  0  0  0  0  0  0  0  0
   -3.8611   -0.5593    0.0000 N   0  0  0  0  0  0  0  0  0  0  0  0
   -7.4335   -0.1468    0.0000 F   0  0  0  0  0  0  0  0  0  0  0  0
   -6.7190   -1.3843    0.0000 F   0  0  0  0  0  0  0  0  0  0  0  0
   -7.4335   -0.9718    0.0000 F   0  0  0  0  0  0  0  0  0  0  0  0
   -3.1468   -0.1468    0.0000 C   0  0  0  0  0  0  0  0  0  0  0  0
   -2.4323   -0.5593    0.0000 N   0  0  0  0  0  0  0  0  0  0  0  0
   -3.1468    0.6782    0.0000 O   0  0  0  0  0  0  0  0  0  0  0  0
   -1.7178   -0.1468    0.0000 C   0  0  0  0  0  0  0  0  0  0  0  0
   -1.0034   -0.5593    0.0000 C   0  0  0  0  0  0  0  0  0  0  0  0
   -0.2889   -0.1468    0.0000 C   0  0  0  0  0  0  0  0  0  0  0  0
   -0.2889    0.6782    0.0000 C   0  0  0  0  0  0  0  0  0  0  0  0
   -1.0034    1.0907    0.0000 C   0  0  0  0  0  0  0  0  0  0  0  0
   -1.7178    0.6782    0.0000 C   0  0  0  0  0  0  0  0  0  0  0  0
    0.4256    1.0907    0.0000 N   0  0  0  0  0  0  0  0  0  0  0  0
    1.1401    0.6782    0.0000 C   0  0  0  0  0  0  0  0  0  0  0  0
    1.1401   -0.1468    0.0000 N   0  0  0  0  0  0  0  0  0  0  0  0
    1.8545   -0.5593    0.0000 C   0  0  0  0  0  0  0  0  0  0  0  0
    2.5690   -0.1468    0.0000 C   0  0  0  0  0  0  0  0  0  0  0  0
    2.5690    0.6782    0.0000 C   0  0  0  0  0  0  0  0  0  0  0  0
    1.8545    1.0907    0.0000 N   0  0  0  0  0  0  0  0  0  0  0  0
    3.2834    1.0907    0.0000 N   0  0  0  0  0  0  0  0  0  0  0  0
    3.9978    0.6782    0.0000 C   0  0  0  0  0  0  0  0  0  0  0  0
    4.0841   -0.1423    0.0000 N   0  0  0  0  0  0  0  0  0  0  0  0
    4.8911   -0.3139    0.0000 N   0  0  0  0  0  0  0  0  0  0  0  0
    5.3036    0.4006    0.0000 C   0  0  0  0  0  0  0  0  0  0  0  0
    4.7515    1.0137    0.0000 C   0  0  0  0  0  0  0  0  0  0  0  0
    6.1004    0.6141    0.0000 C   0  0  0  0  0  0  0  0  0  0  0  0
    6.7416    0.0950    0.0000 C   0  0  0  0  0  0  0  0  0  0  0  0
    7.4335    0.5443    0.0000 C   0  0  0  0  0  0  0  0  0  0  0  0
    7.2200    1.3412    0.0000 C   0  0  0  0  0  0  0  0  0  0  0  0
    6.3961    1.3843    0.0000 C   0  0  0  0  0  0  0  0  0  0  0  0
  1  2  2  0      
  2  3  1  0      
  3  4  2  0      
  4  5  1  0      
  5  6  2  0      
  6  1  1  0      
  2  7  1  0      
  4  8  1  0      
  7  9  1  0      
  7 10  1  0      
  7 11  1  0      
  8 12  1  0      
 12 13  1  0      
 12 14  2  0      
 13 15  1  0      
 15 16  2  0      
 16 17  1  0      
 17 18  2  0      
 18 19  1  0      
 19 20  2  0      
 20 15  1  0      
 18 21  1  0      
 21 22  1  0      
 22 23  2  0      
 23 24  1  0      
 24 25  2  0      
 25 26  1  0      
 26 27  2  0      
 27 22  1  0      
 26 28  1  0      
 28 29  1  0      
 29 30  2  0      
 30 31  1  0      
 31 32  1  0      
 32 33  2  0      
 33 29  1  0      
 32 34  1  0      
 34 35  1  0      
 35 36  1  0      
 36 37  1  0      
 37 38  1  0      
 38 34  1  0      
M  END

>  <RackCode>
HYCPK72334

>  <Cat. No.>
HY-112273

>  <Product Name>
CD532

>  <ROW>
O

>  <COLUMN>
7

>  <CAS No.>
1639009-81-6

>  <MWt>
522.52

>  <Target>
Aurora Kinase

>  <Saltdate>


>  <Smiles>
FC(F)(F)C1=CC=CC(NC(NC2=CC=C(NC3=NC=CC(NC4=NNC(C5CCCC5)=C4)=N3)C=C2)=O)=C1

>  <Solvent>
DMSO Solution

>  <Batch No.>
316941

>  <Quantity>
10mM  * 50uL

>  <Pathway>
Cell Cycle/DNA Damage; Epigenetics

>  <Synonyms>


>  <Formula>
C26H25F3N8O

>  <Research_Area>
Cancer

>  <Clinical_Information>
No Development Reported

>  <SUPPLIER>
MedChemExpress

$$$$
Untitled Document
  ChemDraw08011815252D

 33 38  0  0  0  0  0  0  0  0999 V2000
   -1.4511    1.7965    0.0000 C   0  0  0  0  0  0  0  0  0  0  0  0
   -1.4511    0.9715    0.0000 C   0  0  0  0  0  0  0  0  0  0  0  0
   -0.7366    0.5590    0.0000 C   0  0  0  0  0  0  0  0  0  0  0  0
   -0.0221    0.9715    0.0000 C   0  0  0  0  0  0  0  0  0  0  0  0
   -0.0221    1.7965    0.0000 C   0  0  0  0  0  0  0  0  0  0  0  0
   -0.7366    2.2090    0.0000 C   0  0  0  0  0  0  0  0  0  0  0  0
   -0.7366    3.0312    0.0000 C   0  0  0  0  0  0  0  0  0  0  0  0
    0.6899    2.2076    0.0000 O   0  0  0  0  0  0  0  0  0  0  0  0
    1.3994    1.7980    0.0000 C   0  0  0  0  0  0  0  0  0  0  0  0
   -2.0642    0.4195    0.0000 N   0  0  0  0  0  0  0  0  0  0  0  0
   -1.7286   -0.3342    0.0000 C   0  0  0  0  0  0  0  0  0  0  0  0
   -0.9081   -0.2479    0.0000 C   0  0  0  0  0  0  0  0  0  0  0  0
   -2.0642   -1.0879    0.0000 N   0  0  0  0  0  0  0  0  0  0  0  0
   -1.5792   -1.7553    0.0000 C   0  0  0  0  0  0  0  0  0  0  0  0
   -0.7587   -1.6691    0.0000 N   0  0  0  0  0  0  0  0  0  0  0  0
   -0.4232   -0.9154    0.0000 C   0  0  0  0  0  0  0  0  0  0  0  0
   -1.9136   -2.5063    0.0000 C   0  0  0  0  0  0  0  0  0  0  0  0
    0.3944   -0.8294    0.0000 N   0  0  0  0  0  0  0  0  0  0  0  0
    0.8777   -1.4946    0.0000 C   0  0  0  0  0  0  0  0  0  0  0  0
    0.6227   -2.2792    0.0000 C   0  0  0  0  0  0  0  0  0  0  0  0
    1.2902   -2.7641    0.0000 C   0  0  0  0  0  0  0  0  0  0  0  0
    1.9576   -2.2792    0.0000 N   0  0  0  0  0  0  0  0  0  0  0  0
    1.7027   -1.4946    0.0000 N   0  0  0  0  0  0  0  0  0  0  0  0
    2.1859   -0.8294    0.0000 C   0  0  0  0  0  0  0  0  0  0  0  0
    1.2902   -3.5862    0.0000 C   0  0  0  0  0  0  0  0  0  0  0  0
   -0.0691    3.5161    0.0000 C   0  0  0  0  0  0  0  0  0  0  0  0
   -0.3241    4.3007    0.0000 O   0  0  0  0  0  0  0  0  0  0  0  0
   -1.1491    4.3007    0.0000 N   0  0  0  0  0  0  0  0  0  0  0  0
   -1.4040    3.5161    0.0000 C   0  0  0  0  0  0  0  0  0  0  0  0
   -2.1859    3.2620    0.0000 C   0  0  0  0  0  0  0  0  0  0  0  0
    0.7128    3.2620    0.0000 C   0  0  0  0  0  0  0  0  0  0  0  0
    0.8777   -4.3007    0.0000 C   0  0  0  0  0  0  0  0  0  0  0  0
    1.7027   -4.3007    0.0000 C   0  0  0  0  0  0  0  0  0  0  0  0
  1  2  2  0      
  2  3  1  0      
  3  4  2  0      
  4  5  1  0      
  5  6  2  0      
  6  1  1  0      
  6  7  1  0      
  5  8  1  0      
  8  9  1  0      
  2 10  1  0      
 10 11  1  0      
 11 12  2  0      
 12  3  1  0      
 11 13  1  0      
 13 14  2  0      
 14 15  1  0      
 15 16  2  0      
 16 12  1  0      
 14 17  1  0      
 16 18  1  0      
 18 19  1  0      
 19 20  2  0      
 20 21  1  0      
 21 22  2  0      
 22 23  1  0      
 23 19  1  0      
 23 24  1  0      
 21 25  1  0      
  7 26  2  0      
 26 27  1  0      
 27 28  1  0      
 28 29  2  0      
 29  7  1  0      
 29 30  1  0      
 26 31  1  0      
 25 32  1  0      
 32 33  1  0      
 33 25  1  0      
M  END

>  <RackCode>
HYCPK72334

>  <Cat. No.>
HY-112610

>  <Product Name>
CF53

>  <ROW>
P

>  <COLUMN>
7

>  <CAS No.>
1808160-52-2

>  <MWt>
443.50

>  <Target>
Epigenetic Reader Domain; Histone Acetyltransferase

>  <Saltdate>
Free Base

>  <Smiles>
COC1=C(C2=C(C)ON=C2C)C=C(NC3=C4C(NC5=CC(C6CC6)=NN5C)=NC(C)=N3)C4=C1

>  <Solvent>
DMSO Solution

>  <Batch No.>
43183

>  <Quantity>
10mM  * 50uL

>  <Pathway>
Epigenetics

>  <Synonyms>


>  <Formula>
C24H25N7O2

>  <Research_Area>
Cancer

>  <Clinical_Information>
No Development Reported

>  <SUPPLIER>
MedChemExpress

$$$$
Untitled Document
  ChemDraw05062009442D

 23 25  0  0  0  0  0  0  0  0999 V2000
   -1.8414    0.2062    0.0000 C   0  0  0  0  0  0  0  0  0  0  0  0
   -2.5559   -0.2062    0.0000 C   0  0  0  0  0  0  0  0  0  0  0  0
   -2.5559   -1.0313    0.0000 C   0  0  0  0  0  0  0  0  0  0  0  0
   -3.2704   -1.4437    0.0000 C   0  0  0  0  0  0  0  0  0  0  0  0
   -3.9849   -1.0313    0.0000 C   0  0  0  0  0  0  0  0  0  0  0  0
   -3.9849   -0.2062    0.0000 C   0  0  0  0  0  0  0  0  0  0  0  0
   -3.2704    0.2062    0.0000 C   0  0  0  0  0  0  0  0  0  0  0  0
   -1.8414    1.0313    0.0000 O   0  0  0  0  0  0  0  0  0  0  0  0
   -1.1270   -0.2062    0.0000 N   0  0  0  0  0  0  0  0  0  0  0  0
    1.0164    0.2062    0.0000 C   0  0  0  0  0  0  0  0  0  0  0  0
    0.3020   -0.2062    0.0000 C   0  0  0  0  0  0  0  0  0  0  0  0
   -0.4125    0.2062    0.0000 C   0  0  0  0  0  0  0  0  0  0  0  0
   -0.4125    1.0313    0.0000 C   0  0  0  0  0  0  0  0  0  0  0  0
    0.3020    1.4437    0.0000 C   0  0  0  0  0  0  0  0  0  0  0  0
    1.0164    1.0313    0.0000 N   0  0  0  0  0  0  0  0  0  0  0  0
    1.7309   -0.2062    0.0000 N   0  0  0  0  0  0  0  0  0  0  0  0
    2.4454    0.2062    0.0000 C   0  0  0  0  0  0  0  0  0  0  0  0
    2.4454    1.0313    0.0000 O   0  0  0  0  0  0  0  0  0  0  0  0
    3.1599   -0.2062    0.0000 C   0  0  0  0  0  0  0  0  0  0  0  0
    3.9849   -0.2062    0.0000 C   0  0  0  0  0  0  0  0  0  0  0  0
    3.5724   -0.9207    0.0000 C   0  0  0  0  0  0  0  0  0  0  0  0
   -3.2704    1.0313    0.0000 Cl  0  0  0  0  0  0  0  0  0  0  0  0
   -1.8414   -1.4437    0.0000 Cl  0  0  0  0  0  0  0  0  0  0  0  0
  1  2  1  0      
  2  3  1  0      
  3  4  2  0      
  4  5  1  0      
  5  6  2  0      
  6  7  1  0      
  2  7  2  0      
  1  8  2  0      
  1  9  1  0      
 10 11  1  0      
 11 12  2  0      
 12 13  1  0      
 13 14  2  0      
 14 15  1  0      
 10 15  2  0      
 17 18  2  0      
 19 20  1  0      
 20 21  1  0      
 19 21  1  0      
 17 19  1  0      
 16 17  1  0      
 10 16  1  0      
  9 12  1  0      
  7 22  1  0      
  3 23  1  0      
M  END

>  <RackCode>
HYCPK72334

>  <Cat. No.>
HY-120469

>  <Product Name>
2,6-Dichloro-N-(2-(cyclopropanecarboxamido)pyridin-4-yl)benzamide

>  <ROW>
A

>  <COLUMN>
8

>  <CAS No.>
1258292-64-6

>  <MWt>
350.20

>  <Target>
JAK

>  <Saltdate>
Free Base

>  <Smiles>
O=C(NC1=CC(NC(C2CC2)=O)=NC=C1)C3=C(Cl)C=CC=C3Cl

>  <Solvent>
DMSO Solution

>  <Batch No.>
102699

>  <Quantity>
10mM  * 50uL

>  <Pathway>
Epigenetics; JAK/STAT Signaling; Protein Tyrosine Kinase/RTK; Stem Cell/Wnt

>  <Synonyms>


>  <Formula>
C16H13Cl2N3O2

>  <Research_Area>
Inflammation/Immunology

>  <Clinical_Information>
No Development Reported

>  <SUPPLIER>
MedChemExpress

$$$$
Untitled Document
  ChemDraw02091709332D

 25 26  0  0  0  0  0  0  0  0999 V2000
    2.5005   -0.4125    0.0000 C   0  0  0  0  0  0  0  0  0  0  0  0
    1.7861   -0.8250    0.0000 C   0  0  0  0  0  0  0  0  0  0  0  0
    1.0717   -0.4125    0.0000 C   0  0  0  0  0  0  0  0  0  0  0  0
    0.3572   -0.8250    0.0000 C   0  0  0  0  0  0  0  0  0  0  0  0
   -0.3572   -0.4125    0.0000 C   0  0  0  0  0  0  0  0  0  0  0  0
   -1.0717   -0.8250    0.0000 C   0  0  0  0  0  0  0  0  0  0  0  0
   -1.7861   -0.4125    0.0000 C   0  0  0  0  0  0  0  0  0  0  0  0
    2.5005    0.4125    0.0000 O   0  0  0  0  0  0  0  0  0  0  0  0
    3.2150   -0.8250    0.0000 N   0  0  0  0  0  0  0  0  0  0  0  0
   -1.7861    0.4125    0.0000 O   0  0  0  0  0  0  0  0  0  0  0  0
   -2.5005   -0.8250    0.0000 N   0  0  0  0  0  0  0  0  0  0  0  0
   -3.2150   -0.4125    0.0000 C   0  0  0  0  0  0  0  0  0  0  0  0
   -3.9295   -0.8250    0.0000 C   0  0  0  0  0  0  0  0  0  0  0  0
   -4.6440   -0.4125    0.0000 C   0  0  0  0  0  0  0  0  0  0  0  0
   -4.6440    0.4125    0.0000 C   0  0  0  0  0  0  0  0  0  0  0  0
   -3.9295    0.8250    0.0000 C   0  0  0  0  0  0  0  0  0  0  0  0
   -3.2150    0.4125    0.0000 C   0  0  0  0  0  0  0  0  0  0  0  0
   -5.3583    0.8250    0.0000 C   0  0  0  0  0  0  0  0  0  0  0  0
    3.9295   -0.4125    0.0000 C   0  0  0  0  0  0  0  0  0  0  0  0
    3.9295    0.4125    0.0000 C   0  0  0  0  0  0  0  0  0  0  0  0
    4.6440    0.8250    0.0000 C   0  0  0  0  0  0  0  0  0  0  0  0
    5.3583    0.4125    0.0000 C   0  0  0  0  0  0  0  0  0  0  0  0
    5.3583   -0.4125    0.0000 C   0  0  0  0  0  0  0  0  0  0  0  0
    4.6440   -0.8250    0.0000 C   0  0  0  0  0  0  0  0  0  0  0  0
    3.2150    0.8250    0.0000 N   0  0  0  0  0  0  0  0  0  0  0  0
  1  2  1  0      
  2  3  1  0      
  3  4  1  0      
  4  5  1  0      
  5  6  1  0      
  6  7  1  0      
  1  8  2  0      
  1  9  1  0      
  7 10  2  0      
  7 11  1  0      
 12 13  1  0      
 13 14  2  0      
 14 15  1  0      
 15 16  2  0      
 16 17  1  0      
 12 17  2  0      
 15 18  1  0      
 11 12  1  0      
 19 20  1  0      
 20 21  2  0      
 21 22  1  0      
 22 23  2  0      
 23 24  1  0      
 19 24  2  0      
 20 25  1  0      
  9 19  1  0      
M  END

>  <RackCode>
HYCPK72334

>  <Cat. No.>
HY-19348

>  <Product Name>
Pimelic Diphenylamide 106

>  <ROW>
B

>  <COLUMN>
8

>  <CAS No.>
937039-45-7

>  <MWt>
339.43

>  <Target>
HDAC

>  <Saltdate>
Free Base

>  <Smiles>
O=C(NC1=CC=CC=C1N)CCCCCC(NC2=CC=C(C)C=C2)=O

>  <Solvent>
DMSO Solution

>  <Batch No.>
114386

>  <Quantity>
10mM  * 50uL

>  <Pathway>
Cell Cycle/DNA Damage; Epigenetics

>  <Synonyms>
RGFA-8; TC-H 106; Histone Deacetylase Inhibitor VII

>  <Formula>
C20H25N3O2

>  <Research_Area>
Cancer

>  <Clinical_Information>
No Development Reported

>  <SUPPLIER>
MedChemExpress

$$$$
Untitled Document
  ChemDraw01101714542D

 28 31  0  0  0  0  0  0  0  0999 V2000
   -3.8242   -0.2063    0.0000 C   0  0  0  0  0  0  0  0  0  0  0  0
   -3.8242   -1.0313    0.0000 C   0  0  0  0  0  0  0  0  0  0  0  0
   -3.1098   -1.4438    0.0000 C   0  0  0  0  0  0  0  0  0  0  0  0
   -2.3953   -1.0313    0.0000 C   0  0  0  0  0  0  0  0  0  0  0  0
   -2.3953   -0.2063    0.0000 C   0  0  0  0  0  0  0  0  0  0  0  0
   -3.1098    0.2063    0.0000 C   0  0  0  0  0  0  0  0  0  0  0  0
   -1.6107   -1.2862    0.0000 C   0  0  0  0  0  0  0  0  0  0  0  0
   -1.1258   -0.6188    0.0000 N   0  0  0  0  0  0  0  0  0  0  0  0
   -1.6107    0.0487    0.0000 C   0  0  0  0  0  0  0  0  0  0  0  0
   -0.3008   -0.6188    0.0000 C   0  0  0  0  0  0  0  0  0  0  0  0
    0.1117   -1.3332    0.0000 C   0  0  0  0  0  0  0  0  0  0  0  0
    0.9367   -1.3332    0.0000 C   0  0  0  0  0  0  0  0  0  0  0  0
    1.3492   -0.6188    0.0000 N   0  0  0  0  0  0  0  0  0  0  0  0
    0.9367    0.0957    0.0000 C   0  0  0  0  0  0  0  0  0  0  0  0
    0.1117    0.0957    0.0000 C   0  0  0  0  0  0  0  0  0  0  0  0
    2.1742   -0.6188    0.0000 C   0  0  0  0  0  0  0  0  0  0  0  0
    2.5867   -1.3332    0.0000 C   0  0  0  0  0  0  0  0  0  0  0  0
    3.4117   -1.3332    0.0000 C   0  0  0  0  0  0  0  0  0  0  0  0
    3.8242   -0.6188    0.0000 C   0  0  0  0  0  0  0  0  0  0  0  0
    3.4117    0.0957    0.0000 C   0  0  0  0  0  0  0  0  0  0  0  0
    2.5867    0.0957    0.0000 C   0  0  0  0  0  0  0  0  0  0  0  0
    4.5387   -1.0313    0.0000 F   0  0  0  0  0  0  0  0  0  0  0  0
    4.5387   -0.2063    0.0000 F   0  0  0  0  0  0  0  0  0  0  0  0
   -1.3557    0.8333    0.0000 O   0  0  0  0  0  0  0  0  0  0  0  0
   -3.1098    1.0313    0.0000 C   0  0  0  0  0  0  0  0  0  0  0  0
   -2.3953    1.4438    0.0000 O   0  0  0  0  0  0  0  0  0  0  0  0
   -3.8242    1.4438    0.0000 N   0  0  0  0  0  0  0  0  0  0  0  0
   -4.5387   -1.4438    0.0000 F   0  0  0  0  0  0  0  0  0  0  0  0
  1  2  1  0      
  2  3  2  0      
  3  4  1  0      
  4  5  2  0      
  5  6  1  0      
  6  1  2  0      
  4  7  1  0      
  7  8  1  0      
  8  9  1  0      
  9  5  1  0      
  8 10  1  0      
 10 11  1  0      
 11 12  1  0      
 12 13  1  0      
 13 14  1  0      
 14 15  1  0      
 15 10  1  0      
 13 16  1  0      
 16 17  1  0      
 17 18  1  0      
 18 19  1  0      
 19 20  1  0      
 20 21  1  0      
 21 16  1  0      
 19 22  1  0      
 19 23  1  0      
  9 24  2  0      
  6 25  1  0      
 25 26  2  0      
 25 27  1  0      
  2 28  1  0      
M  END

>  <RackCode>
HYCPK72334

>  <Cat. No.>
HY-18954

>  <Product Name>
NMS-P118

>  <ROW>
C

>  <COLUMN>
8

>  <CAS No.>
1262417-51-5

>  <MWt>
395.42

>  <Target>
PARP

>  <Saltdate>
Free Base

>  <Smiles>
FC(CC1)(F)CCC1N(CC2)CCC2N(C3=O)CC4=C3C(C(N)=O)=CC(F)=C4

>  <Solvent>
DMSO Solution

>  <Batch No.>
23020

>  <Quantity>
10mM  * 50uL

>  <Pathway>
Cell Cycle/DNA Damage; Epigenetics

>  <Synonyms>


>  <Formula>
C20H24F3N3O2

>  <Research_Area>
Cancer

>  <Clinical_Information>
No Development Reported

>  <SUPPLIER>
MedChemExpress

$$$$
Untitled Document
  ChemDraw04261617132D

 24 27  0  0  0  0  0  0  0  0999 V2000
   -3.7985    0.7896    0.0000 C   0  0  0  0  0  0  0  0  0  0  0  0
   -3.7985   -0.0354    0.0000 C   0  0  0  0  0  0  0  0  0  0  0  0
   -3.0840   -0.4479    0.0000 C   0  0  0  0  0  0  0  0  0  0  0  0
   -2.3695   -0.0354    0.0000 C   0  0  0  0  0  0  0  0  0  0  0  0
   -2.3695    0.7896    0.0000 C   0  0  0  0  0  0  0  0  0  0  0  0
   -3.0840    1.2021    0.0000 C   0  0  0  0  0  0  0  0  0  0  0  0
   -1.6551    1.2021    0.0000 C   0  0  0  0  0  0  0  0  0  0  0  0
   -3.0840    2.0270    0.0000 O   0  0  0  0  0  0  0  0  0  0  0  0
   -0.9407    0.7896    0.0000 C   0  0  0  0  0  0  0  0  0  0  0  0
   -1.6551    2.0270    0.0000 O   0  0  0  0  0  0  0  0  0  0  0  0
   -0.2262    1.2021    0.0000 C   0  0  0  0  0  0  0  0  0  0  0  0
    0.4883    0.7896    0.0000 N   0  0  0  0  0  0  0  0  0  0  0  0
    0.2749   -0.0073    0.0000 C   0  0  0  0  0  0  0  0  0  0  0  0
    0.8583   -0.5906    0.0000 C   0  0  0  0  0  0  0  0  0  0  0  0
    1.6551   -0.3771    0.0000 N   0  0  0  0  0  0  0  0  0  0  0  0
    1.8686    0.4198    0.0000 C   0  0  0  0  0  0  0  0  0  0  0  0
    1.2853    1.0031    0.0000 C   0  0  0  0  0  0  0  0  0  0  0  0
    0.9894    0.4052    0.0000 C   0  0  0  0  0  0  0  0  0  0  0  0
    2.3695   -0.7896    0.0000 C   0  0  0  0  0  0  0  0  0  0  0  0
    2.3695   -1.6146    0.0000 N   0  0  0  0  0  0  0  0  0  0  0  0
    3.0840   -2.0270    0.0000 C   0  0  0  0  0  0  0  0  0  0  0  0
    3.7985   -1.6146    0.0000 C   0  0  0  0  0  0  0  0  0  0  0  0
    3.7985   -0.7896    0.0000 C   0  0  0  0  0  0  0  0  0  0  0  0
    3.0840   -0.3771    0.0000 C   0  0  0  0  0  0  0  0  0  0  0  0
  1  2  2  0      
  2  3  1  0      
  3  4  2  0      
  4  5  1  0      
  5  6  2  0      
  6  1  1  0      
  5  7  1  0      
  6  8  1  0      
  7  9  1  0      
  7 10  2  0      
  9 11  2  0      
 11 12  1  0      
 12 13  1  0      
 13 14  1  0      
 14 15  1  0      
 15 16  1  0      
 16 17  1  0      
 17 12  1  0      
 13 18  1  1      
 16 18  1  1      
 15 19  1  0      
 19 20  2  0      
 20 21  1  0      
 21 22  2  0      
 22 23  1  0      
 23 24  2  0      
 24 19  1  0      
M  END

>  <RackCode>
HYCPK72334

>  <Cat. No.>
HY-12409

>  <Product Name>
PFI-3

>  <ROW>
D

>  <COLUMN>
8

>  <CAS No.>
1819363-80-8

>  <MWt>
321.37

>  <Target>
Epigenetic Reader Domain

>  <Saltdate>
Free Base

>  <Smiles>
OC1=C(C(/C=C/N2[C@H](C3)CN(C4=NC=CC=C4)[C@H]3C2)=O)C=CC=C1

>  <Solvent>
DMSO Solution

>  <Batch No.>
34670

>  <Quantity>
10mM  * 50uL

>  <Pathway>
Epigenetics

>  <Synonyms>


>  <Formula>
C19H19N3O2

>  <Research_Area>
Cancer

>  <Clinical_Information>
No Development Reported

>  <SUPPLIER>
MedChemExpress

$$$$
Untitled Document
  ChemDraw02061815422D

 27 29  0  0  0  0  0  0  0  0999 V2000
    1.3716   -0.2799    0.0000 N   0  0  0  0  0  0  0  0  0  0  0  0
    1.3716    0.5422    0.0000 C   0  0  0  0  0  0  0  0  0  0  0  0
    2.0835    0.9533    0.0000 O   0  0  0  0  0  0  0  0  0  0  0  0
    0.6596    0.9533    0.0000 C   0  0  0  0  0  0  0  0  0  0  0  0
   -0.0556    0.5377    0.0000 C   0  0  0  0  0  0  0  0  0  0  0  0
   -0.7709    0.9533    0.0000 C   0  0  0  0  0  0  0  0  0  0  0  0
   -1.4829    2.1893    0.0000 N   0  0  0  0  0  0  0  0  0  0  0  0
   -2.1949    1.7783    0.0000 C   0  0  0  0  0  0  0  0  0  0  0  0
   -2.1949    0.9561    0.0000 O   0  0  0  0  0  0  0  0  0  0  0  0
   -2.9069    2.1893    0.0000 C   0  0  0  0  0  0  0  0  0  0  0  0
   -3.6541    1.8531    0.0000 C   0  0  0  0  0  0  0  0  0  0  0  0
   -4.2237    2.4595    0.0000 C   0  0  0  0  0  0  0  0  0  0  0  0
   -3.8233    3.1648    0.0000 C   0  0  0  0  0  0  0  0  0  0  0  0
   -2.9897    3.0087    0.0000 O   0  0  0  0  0  0  0  0  0  0  0  0
   -0.7709    1.7783    0.0000 C   0  0  0  0  0  0  0  0  0  0  0  0
   -0.0556    2.1877    0.0000 C   0  0  0  0  0  0  0  0  0  0  0  0
    0.6607    1.7783    0.0000 C   0  0  0  0  0  0  0  0  0  0  0  0
    2.0835   -0.6910    0.0000 C   0  0  0  0  0  0  0  0  0  0  0  0
    2.0835   -1.5240    0.0000 C   0  0  0  0  0  0  0  0  0  0  0  0
    2.7988   -1.9316    0.0000 C   0  0  0  0  0  0  0  0  0  0  0  0
    2.7988   -2.7537    0.0000 C   0  0  0  0  0  0  0  0  0  0  0  0
    2.0869   -3.1648    0.0000 O   0  0  0  0  0  0  0  0  0  0  0  0
    3.5108   -3.1648    0.0000 O   0  0  0  0  0  0  0  0  0  0  0  0
    3.5118   -1.5200    0.0000 C   0  0  0  0  0  0  0  0  0  0  0  0
    3.5140   -0.6910    0.0000 C   0  0  0  0  0  0  0  0  0  0  0  0
    2.7988   -0.2816    0.0000 C   0  0  0  0  0  0  0  0  0  0  0  0
    4.2237   -1.9311    0.0000 O   0  0  0  0  0  0  0  0  0  0  0  0
  1  2  1  0      
  1 18  1  0      
  2  3  2  0      
  2  4  1  0      
  4  5  2  0      
  4 17  1  0      
  5  6  1  0      
  6 15  2  0      
  7  8  1  0      
  8  9  2  0      
  8 10  1  0      
 10 11  2  0      
 10 14  1  0      
 11 12  1  0      
 12 13  2  0      
 14 13  1  0      
 16 15  1  0      
 17 16  2  0      
 18 19  2  0      
 18 26  1  0      
 19 20  1  0      
 20 21  1  0      
 20 24  2  0      
 21 22  1  0      
 21 23  2  0      
 25 24  1  0      
 24 27  1  0      
 26 25  2  0      
  7 15  1  0      
M  END

>  <RackCode>
HYCPK72334

>  <Cat. No.>
HY-103721

>  <Product Name>
SIRT6-IN-2

>  <ROW>
E

>  <COLUMN>
8

>  <CAS No.>
891002-11-2

>  <MWt>
366.32

>  <Target>
Sirtuin

>  <Saltdate>


>  <Smiles>
O=C(C1=CC=C(NC(C2=CC=CO2)=O)C=C1)NC3=CC(C(O)=O)=C(O)C=C3

>  <Solvent>
DMSO Solution

>  <Batch No.>
277531

>  <Quantity>
10mM  * 50uL

>  <Pathway>
Cell Cycle/DNA Damage; Epigenetics

>  <Synonyms>


>  <Formula>
C19H14N2O6

>  <Research_Area>
Cancer

>  <Clinical_Information>
No Development Reported

>  <SUPPLIER>
MedChemExpress

$$$$
Untitled Document
  ChemDraw08081709562D

 31 35  0  0  0  0  0  0  0  0999 V2000
    2.4390    0.8250    0.0000 N   0  0  0  0  0  0  0  0  0  0  0  0
    3.1535    0.4125    0.0000 C   0  0  0  0  0  0  0  0  0  0  0  0
    3.1535   -0.4125    0.0000 C   0  0  0  0  0  0  0  0  0  0  0  0
    2.4390   -0.8250    0.0000 C   0  0  0  0  0  0  0  0  0  0  0  0
    1.7246   -0.4125    0.0000 C   0  0  0  0  0  0  0  0  0  0  0  0
    1.0101   -0.8250    0.0000 C   0  0  0  0  0  0  0  0  0  0  0  0
    0.2956   -0.4125    0.0000 C   0  0  0  0  0  0  0  0  0  0  0  0
    0.2956    0.4125    0.0000 C   0  0  0  0  0  0  0  0  0  0  0  0
    1.0101    0.8250    0.0000 C   0  0  0  0  0  0  0  0  0  0  0  0
    1.7246    0.4125    0.0000 C   0  0  0  0  0  0  0  0  0  0  0  0
   -0.4189   -0.8250    0.0000 C   0  0  0  0  0  0  0  0  0  0  0  0
   -0.4189   -1.6500    0.0000 O   0  0  0  0  0  0  0  0  0  0  0  0
   -1.1333   -0.4125    0.0000 N   0  0  0  0  0  0  0  0  0  0  0  0
    3.8680    0.8250    0.0000 N   0  0  0  0  0  0  0  0  0  0  0  0
    3.8680    1.6500    0.0000 C   0  0  0  0  0  0  0  0  0  0  0  0
    4.5824    2.0625    0.0000 C   0  0  0  0  0  0  0  0  0  0  0  0
    5.2969    1.6500    0.0000 N   0  0  0  0  0  0  0  0  0  0  0  0
    5.2969    0.8250    0.0000 C   0  0  0  0  0  0  0  0  0  0  0  0
    4.5824    0.4125    0.0000 C   0  0  0  0  0  0  0  0  0  0  0  0
   -1.8478   -0.8250    0.0000 C   0  0  0  0  0  0  0  0  0  0  0  0
   -1.8478   -1.6500    0.0000 C   0  0  0  0  0  0  0  0  0  0  0  0
   -2.5623   -2.0625    0.0000 C   0  0  0  0  0  0  0  0  0  0  0  0
   -3.2767   -1.6500    0.0000 C   0  0  0  0  0  0  0  0  0  0  0  0
   -3.2767   -0.8250    0.0000 C   0  0  0  0  0  0  0  0  0  0  0  0
   -2.5623   -0.4125    0.0000 C   0  0  0  0  0  0  0  0  0  0  0  0
   -3.9912   -0.4125    0.0000 C   0  0  0  0  0  0  0  0  0  0  0  0
   -4.7449   -0.7481    0.0000 C   0  0  0  0  0  0  0  0  0  0  0  0
   -5.2969   -0.1350    0.0000 C   0  0  0  0  0  0  0  0  0  0  0  0
   -4.8844    0.5795    0.0000 C   0  0  0  0  0  0  0  0  0  0  0  0
   -4.0774    0.4080    0.0000 S   0  0  0  0  0  0  0  0  0  0  0  0
   -1.1333   -2.0625    0.0000 N   0  0  0  0  0  0  0  0  0  0  0  0
  1  2  2  0      
  2  3  1  0      
  3  4  2  0      
  4  5  1  0      
  5  6  2  0      
  6  7  1  0      
  7  8  2  0      
  8  9  1  0      
  9 10  2  0      
  1 10  1  0      
  5 10  1  0      
 11 12  2  0      
 11 13  1  0      
  7 11  1  0      
 14 15  1  0      
 15 16  1  0      
 16 17  1  0      
 17 18  1  0      
 18 19  1  0      
 14 19  1  0      
  2 14  1  0      
 20 21  1  0      
 21 22  2  0      
 22 23  1  0      
 23 24  2  0      
 24 25  1  0      
 20 25  2  0      
 26 27  2  0      
 27 28  1  0      
 28 29  2  0      
 29 30  1  0      
 26 30  1  0      
 24 26  1  0      
 21 31  1  0      
 13 20  1  0      
M  END

>  <RackCode>
HYCPK72334

>  <Cat. No.>
HY-104008

>  <Product Name>
ACY-957

>  <ROW>
F

>  <COLUMN>
8

>  <CAS No.>
1609389-52-7

>  <MWt>
429.54

>  <Target>
HDAC

>  <Saltdate>
Free Base

>  <Smiles>
O=C(C1=CC=C2N=C(N3CCNCC3)C=CC2=C1)NC4=CC(C5=CC=CS5)=CC=C4N

>  <Solvent>
DMSO Solution

>  <Batch No.>
41221

>  <Quantity>
10mM  * 50uL

>  <Pathway>
Cell Cycle/DNA Damage; Epigenetics

>  <Synonyms>


>  <Formula>
C24H23N5OS

>  <Research_Area>
Others

>  <Clinical_Information>
No Development Reported

>  <SUPPLIER>
MedChemExpress

$$$$
Untitled Document
  ChemDraw12042316122D

 28 30  0  0  0  0  0  0  0  0999 V2000
   -2.0935    1.4621    0.0000 C   0  0  0  0  0  0  0  0  0  0  0  0
   -1.3790    1.0496    0.0000 N   0  0  0  0  0  0  0  0  0  0  0  0
   -0.6645    1.4621    0.0000 C   0  0  0  0  0  0  0  0  0  0  0  0
   -1.3790    0.2246    0.0000 C   0  0  0  0  0  0  0  0  0  0  0  0
    2.1934   -0.1879    0.0000 C   0  0  0  0  0  0  0  0  0  0  0  0
    2.9079    0.2246    0.0000 C   0  0  0  0  0  0  0  0  0  0  0  0
    3.6224   -0.1879    0.0000 C   0  0  0  0  0  0  0  0  0  0  0  0
    4.3369    0.2246    0.0000 N   0  0  0  0  0  0  0  0  0  0  0  0
    3.6224   -1.0129    0.0000 O   0  0  0  0  0  0  0  0  0  0  0  0
    5.0513   -0.1879    0.0000 O   0  0  0  0  0  0  0  0  0  0  0  0
   -2.8080    1.0496    0.0000 C   0  0  0  0  0  0  0  0  0  0  0  0
   -3.4981    1.4989    0.0000 C   0  0  0  0  0  0  0  0  0  0  0  0
   -2.7640    0.2274    0.0000 C   0  0  0  0  0  0  0  0  0  0  0  0
   -3.7154    1.0439    0.0000 C   0  0  0  0  0  0  0  0  0  0  0  0
   -4.1440    1.1259    0.0000 C   0  0  0  0  0  0  0  0  0  0  0  0
   -3.4100   -0.1456    0.0000 C   0  0  0  0  0  0  0  0  0  0  0  0
   -4.3614    0.6709    0.0000 C   0  0  0  0  0  0  0  0  0  0  0  0
   -5.0513    1.1200    0.0000 C   0  0  0  0  0  0  0  0  0  0  0  0
   -4.0999    0.3037    0.0000 C   0  0  0  0  0  0  0  0  0  0  0  0
   -4.3173   -0.1514    0.0000 C   0  0  0  0  0  0  0  0  0  0  0  0
    0.0499    1.0496    0.0000 C   0  0  0  0  0  0  0  0  0  0  0  0
    0.7644    1.4621    0.0000 C   0  0  0  0  0  0  0  0  0  0  0  0
    0.0499    0.2246    0.0000 C   0  0  0  0  0  0  0  0  0  0  0  0
    1.4789    1.0496    0.0000 C   0  0  0  0  0  0  0  0  0  0  0  0
    0.7644   -0.1879    0.0000 C   0  0  0  0  0  0  0  0  0  0  0  0
    1.4789    0.2246    0.0000 C   0  0  0  0  0  0  0  0  0  0  0  0
    0.0859   -1.4989    0.0000 H   0  0  0  0  0  0  0  0  0  0  0  0
    0.9109   -1.4989    0.0000 Cl  0  0  0  0  0  0  0  0  0  0  0  0
  1  2  1  0      
  1 11  1  0      
  2  3  1  0      
  2  4  1  0      
  3 21  1  0      
  5  6  2  0      
  5 26  1  0      
  6  7  1  0      
  7  8  1  0      
  7  9  2  0      
  8 10  1  0      
 11 12  1  0      
 11 13  1  0      
 11 14  1  0      
 12 15  1  0      
 13 16  1  0      
 14 17  1  0      
 15 18  1  0      
 15 19  1  0      
 16 19  1  0      
 16 20  1  0      
 17 18  1  0      
 17 20  1  0      
 21 22  2  0      
 21 23  1  0      
 22 24  1  0      
 23 25  2  0      
 24 26  2  0      
 25 26  1  0      
 27 28  1  0      
M  END

>  <RackCode>
HYCPK72334

>  <Cat. No.>
HY-160092A

>  <Product Name>
Martinostat (hydrochloride)

>  <ROW>
G

>  <COLUMN>
8

>  <CAS No.>


>  <MWt>
390.95

>  <Target>
HDAC

>  <Saltdate>
Hydrochloride

>  <Smiles>
CN(CC(C=C1)=CC=C1/C=C/C(NO)=O)CC2(C[C@@H](C3)C4)C[C@@H]4C[C@@H]3C2.[H]Cl

>  <Solvent>
DMSO Solution

>  <Batch No.>
318541

>  <Quantity>
10mM  * 50uL

>  <Pathway>
Cell Cycle/DNA Damage; Epigenetics

>  <Synonyms>


>  <Formula>
C22H31ClN2O2

>  <Research_Area>
Neurological Disease

>  <Clinical_Information>
No Development Reported

>  <SUPPLIER>
MedChemExpress

$$$$
Untitled Document
  ChemDraw01252208472D

 26 28  0  0  0  0  0  0  0  0999 V2000
   -2.5049   -2.3810    0.0000 C   0  0  0  0  0  0  0  0  0  0  0  0
   -1.7904   -1.9685    0.0000 C   0  0  0  0  0  0  0  0  0  0  0  0
   -1.0759   -2.3810    0.0000 C   0  0  0  0  0  0  0  0  0  0  0  0
   -2.5049   -3.2060    0.0000 O   0  0  0  0  0  0  0  0  0  0  0  0
   -3.2193   -1.9685    0.0000 N   0  0  0  0  0  0  0  0  0  0  0  0
    1.0675   -1.1435    0.0000 C   0  0  0  0  0  0  0  0  0  0  0  0
    1.0675   -1.9685    0.0000 C   0  0  0  0  0  0  0  0  0  0  0  0
    0.3530   -2.3810    0.0000 C   0  0  0  0  0  0  0  0  0  0  0  0
   -0.3614   -1.9685    0.0000 C   0  0  0  0  0  0  0  0  0  0  0  0
   -0.3614   -1.1435    0.0000 C   0  0  0  0  0  0  0  0  0  0  0  0
    0.3530   -0.7310    0.0000 N   0  0  0  0  0  0  0  0  0  0  0  0
    1.8521   -0.8886    0.0000 N   0  0  0  0  0  0  0  0  0  0  0  0
    1.8521   -2.2235    0.0000 C   0  0  0  0  0  0  0  0  0  0  0  0
    2.3370   -1.5560    0.0000 C   0  0  0  0  0  0  0  0  0  0  0  0
    2.1071   -0.1040    0.0000 S   0  0  0  0  0  0  0  0  0  0  0  0
    2.8917   -0.3589    0.0000 O   0  0  0  0  0  0  0  0  0  0  0  0
    1.3224    0.1510    0.0000 O   0  0  0  0  0  0  0  0  0  0  0  0
    2.3620    0.6806    0.0000 C   0  0  0  0  0  0  0  0  0  0  0  0
    1.8100    1.2937    0.0000 C   0  0  0  0  0  0  0  0  0  0  0  0
    2.0649    2.0784    0.0000 C   0  0  0  0  0  0  0  0  0  0  0  0
    2.8719    2.2499    0.0000 C   0  0  0  0  0  0  0  0  0  0  0  0
    3.4239    1.6368    0.0000 C   0  0  0  0  0  0  0  0  0  0  0  0
    3.1690    0.8522    0.0000 C   0  0  0  0  0  0  0  0  0  0  0  0
    3.1268    3.0345    0.0000 O   0  0  0  0  0  0  0  0  0  0  0  0
    3.9338    3.2060    0.0000 C   0  0  0  0  0  0  0  0  0  0  0  0
   -3.9338   -2.3810    0.0000 O   0  0  0  0  0  0  0  0  0  0  0  0
  1  2  1  0      
  2  3  2  0      
  1  4  2  0      
  1  5  1  0      
  6  7  1  0      
  7  8  2  0      
  8  9  1  0      
  9 10  2  0      
 10 11  1  0      
  6 11  2  0      
 13 14  1  0      
 12 14  1  0      
  6 12  1  0      
  7 13  1  0      
 15 16  2  0      
 15 17  2  0      
 18 19  1  0      
 19 20  2  0      
 20 21  1  0      
 21 22  2  0      
 22 23  1  0      
 18 23  2  0      
 15 18  1  0      
 24 25  1  0      
 21 24  1  0      
 12 15  1  0      
  3  9  1  0      
  5 26  1  0      
M  END

>  <RackCode>
HYCPK72334

>  <Cat. No.>
HY-145426

>  <Product Name>
MPT0B390

>  <ROW>
H

>  <COLUMN>
8

>  <CAS No.>
1817802-18-8

>  <MWt>
375.40

>  <Target>
HDAC

>  <Saltdate>


>  <Smiles>
O=C(NO)/C=C/C1=CN=C(N(S(=O)(C2=CC=C(OC)C=C2)=O)CC3)C3=C1

>  <Solvent>
DMSO Solution

>  <Batch No.>
158950

>  <Quantity>
10mM  * 50uL

>  <Pathway>
Cell Cycle/DNA Damage; Epigenetics

>  <Synonyms>


>  <Formula>
C17H17N3O5S

>  <Research_Area>
Cancer

>  <Clinical_Information>
No Development Reported

>  <SUPPLIER>
MedChemExpress

$$$$
Untitled Document
  ChemDraw09141815342D

 27 30  0  0  0  0  0  0  0  0999 V2000
    2.1434   -2.1460    0.0000 C   0  0  0  0  0  0  0  0  0  0  0  0
    2.8579   -1.7335    0.0000 C   0  0  0  0  0  0  0  0  0  0  0  0
    1.4289   -1.7335    0.0000 N   0  0  0  0  0  0  0  0  0  0  0  0
    0.7145   -2.1460    0.0000 C   0  0  0  0  0  0  0  0  0  0  0  0
    0.0000   -1.7335    0.0000 C   0  0  0  0  0  0  0  0  0  0  0  0
    0.0000   -0.9085    0.0000 N   0  0  0  0  0  0  0  0  0  0  0  0
    0.7145   -0.4960    0.0000 C   0  0  0  0  0  0  0  0  0  0  0  0
    1.4289   -0.9085    0.0000 C   0  0  0  0  0  0  0  0  0  0  0  0
   -0.7145   -0.4960    0.0000 C   0  0  0  0  0  0  0  0  0  0  0  0
   -1.4289   -0.9085    0.0000 O   0  0  0  0  0  0  0  0  0  0  0  0
   -0.7145    1.9790    0.0000 N   0  0  0  0  0  0  0  0  0  0  0  0
    0.0000    1.5665    0.0000 C   0  0  0  0  0  0  0  0  0  0  0  0
    0.0000    0.7415    0.0000 C   0  0  0  0  0  0  0  0  0  0  0  0
   -0.7145    0.3290    0.0000 C   0  0  0  0  0  0  0  0  0  0  0  0
   -1.4289    0.7415    0.0000 C   0  0  0  0  0  0  0  0  0  0  0  0
   -2.1434    0.3290    0.0000 C   0  0  0  0  0  0  0  0  0  0  0  0
   -2.8579    0.7415    0.0000 C   0  0  0  0  0  0  0  0  0  0  0  0
   -2.8579    1.5665    0.0000 C   0  0  0  0  0  0  0  0  0  0  0  0
   -2.1434    1.9790    0.0000 C   0  0  0  0  0  0  0  0  0  0  0  0
   -1.4289    1.5665    0.0000 C   0  0  0  0  0  0  0  0  0  0  0  0
    1.4681    1.6434    0.0000 O   0  0  0  0  0  0  0  0  0  0  0  0
    0.7145    1.9790    0.0000 C   0  0  0  0  0  0  0  0  0  0  0  0
    0.8007    2.7995    0.0000 C   0  0  0  0  0  0  0  0  0  0  0  0
    1.6077    2.9710    0.0000 C   0  0  0  0  0  0  0  0  0  0  0  0
    2.0202    2.2565    0.0000 C   0  0  0  0  0  0  0  0  0  0  0  0
    2.8407    2.1703    0.0000 C   0  0  0  0  0  0  0  0  0  0  0  0
    2.1434   -2.9710    0.0000 O   0  0  0  0  0  0  0  0  0  0  0  0
  1  2  1  0      
  3  4  1  0      
  4  5  1  0      
  5  6  1  0      
  6  7  1  0      
  7  8  1  0      
  3  8  1  0      
  9 10  2  0      
 11 12  2  0      
 12 13  1  0      
 13 14  2  0      
 14 15  1  0      
 15 16  2  0      
 16 17  1  0      
 17 18  2  0      
 18 19  1  0      
 19 20  2  0      
 11 20  1  0      
 15 20  1  0      
 21 22  1  0      
 22 23  2  0      
 23 24  1  0      
 24 25  2  0      
 21 25  1  0      
 25 26  1  0      
 12 22  1  0      
  9 14  1  0      
  6  9  1  0      
  1  3  1  0      
  1 27  2  0      
M  END

>  <RackCode>
HYCPK72334

>  <Cat. No.>
HY-117006

>  <Product Name>
E1231

>  <ROW>
I

>  <COLUMN>
8

>  <CAS No.>
1031195-19-3

>  <MWt>
363.41

>  <Target>
Sirtuin

>  <Saltdate>


>  <Smiles>
CC(N1CCN(C(C2=CC(C3=CC=C(C)O3)=NC4=CC=CC=C24)=O)CC1)=O

>  <Solvent>
DMSO Solution

>  <Batch No.>
266066

>  <Quantity>
10mM  * 50uL

>  <Pathway>
Cell Cycle/DNA Damage; Epigenetics

>  <Synonyms>
1-{4-[2-(5-Methylfuran-2-yl)quinoline-4-carbonyl]piperazin-1-yl}ethan-1-one

>  <Formula>
C21H21N3O3

>  <Research_Area>
Cardiovascular Disease

>  <Clinical_Information>
No Development Reported

>  <SUPPLIER>
MedChemExpress

$$$$
Untitled Document
  ChemDraw06131615432D

 28 31  0  0  0  0  0  0  0  0999 V2000
   -3.0671    0.0000    0.0000 C   0  0  0  0  0  0  0  0  0  0  0  0
   -3.0671   -0.8250    0.0000 N   0  0  0  0  0  0  0  0  0  0  0  0
   -2.3527   -1.2375    0.0000 C   0  0  0  0  0  0  0  0  0  0  0  0
   -1.6382   -0.8250    0.0000 N   0  0  0  0  0  0  0  0  0  0  0  0
   -1.6382    0.0000    0.0000 C   0  0  0  0  0  0  0  0  0  0  0  0
   -2.3527    0.4125    0.0000 C   0  0  0  0  0  0  0  0  0  0  0  0
   -3.7816    0.4125    0.0000 N   0  0  0  0  0  0  0  0  0  0  0  0
   -4.4961    0.0000    0.0000 C   0  0  0  0  0  0  0  0  0  0  0  0
   -5.2930    0.2135    0.0000 C   0  0  0  0  0  0  0  0  0  0  0  0
   -5.5065   -0.5834    0.0000 O   0  0  0  0  0  0  0  0  0  0  0  0
   -4.7096   -0.7969    0.0000 C   0  0  0  0  0  0  0  0  0  0  0  0
   -0.9237    0.4125    0.0000 C   0  0  0  0  0  0  0  0  0  0  0  0
   -0.2093    0.0000    0.0000 N   0  0  0  0  0  0  0  0  0  0  0  0
    0.5052    0.4125    0.0000 C   0  0  0  0  0  0  0  0  0  0  0  0
    1.2197    0.0000    0.0000 C   0  0  0  0  0  0  0  0  0  0  0  0
   -0.9237    1.2375    0.0000 O   0  0  0  0  0  0  0  0  0  0  0  0
    1.9342    0.4125    0.0000 C   0  0  0  0  0  0  0  0  0  0  0  0
    2.6486    0.0000    0.0000 N   0  0  0  0  0  0  0  0  0  0  0  0
    2.6486   -0.8250    0.0000 C   0  0  0  0  0  0  0  0  0  0  0  0
    3.3631   -1.2375    0.0000 C   0  0  0  0  0  0  0  0  0  0  0  0
    4.0776   -0.8250    0.0000 C   0  0  0  0  0  0  0  0  0  0  0  0
    4.0776    0.0000    0.0000 C   0  0  0  0  0  0  0  0  0  0  0  0
    3.3631    0.4125    0.0000 C   0  0  0  0  0  0  0  0  0  0  0  0
    4.7920   -1.2375    0.0000 C   0  0  0  0  0  0  0  0  0  0  0  0
    5.5065   -0.8250    0.0000 C   0  0  0  0  0  0  0  0  0  0  0  0
    5.5065    0.0000    0.0000 C   0  0  0  0  0  0  0  0  0  0  0  0
    4.7920    0.4125    0.0000 C   0  0  0  0  0  0  0  0  0  0  0  0
    1.2197   -0.8250    0.0000 O   0  0  0  0  0  0  0  0  0  0  0  0
  1  2  2  0      
  2  3  1  0      
  3  4  2  0      
  4  5  1  0      
  5  6  2  0      
  6  1  1  0      
  1  7  1  0      
  7  8  1  0      
  8  9  1  0      
  9 10  1  0      
 10 11  1  0      
 11  8  1  0      
  5 12  1  0      
 12 13  1  0      
 13 14  1  0      
 14 15  1  0      
 12 16  2  0      
 15 17  1  0      
 17 18  1  0      
 18 19  1  0      
 19 20  1  0      
 20 21  1  0      
 21 22  2  0      
 22 23  1  0      
 23 18  1  0      
 21 24  1  0      
 24 25  2  0      
 25 26  1  0      
 26 27  2  0      
 27 22  1  0      
 15 28  1  1      
M  END

>  <RackCode>
HYCPK72334

>  <Cat. No.>
HY-12727

>  <Product Name>
EPZ015666

>  <ROW>
J

>  <COLUMN>
8

>  <CAS No.>
1616391-65-1

>  <MWt>
383.44

>  <Target>
Histone Methyltransferase

>  <Saltdate>
Free Base

>  <Smiles>
O=C(NC[C@H](O)CN1CCC(C=CC=C2)=C2C1)C3=CC(NC4COC4)=NC=N3

>  <Solvent>
DMSO Solution

>  <Batch No.>
22070

>  <Quantity>
10mM  * 50uL

>  <Pathway>
Epigenetics

>  <Synonyms>
GSK3235025

>  <Formula>
C20H25N5O3

>  <Research_Area>
Cancer

>  <Clinical_Information>
No Development Reported

>  <SUPPLIER>
MedChemExpress

$$$$
Untitled Document
  ChemDraw01181915142D

 17 18  0  0  0  0  0  0  0  0999 V2000
    3.2151    0.6187    0.0000 O   0  0  0  0  0  0  0  0  0  0  0  0
    2.5006    0.2062    0.0000 C   0  0  0  0  0  0  0  0  0  0  0  0
    2.5006   -0.6188    0.0000 C   0  0  0  0  0  0  0  0  0  0  0  0
    1.7862   -1.0313    0.0000 C   0  0  0  0  0  0  0  0  0  0  0  0
    1.7862   -1.8563    0.0000 O   0  0  0  0  0  0  0  0  0  0  0  0
    1.0717   -0.6188    0.0000 C   0  0  0  0  0  0  0  0  0  0  0  0
    1.0717    0.2062    0.0000 C   0  0  0  0  0  0  0  0  0  0  0  0
    0.3572    0.6187    0.0000 C   0  0  0  0  0  0  0  0  0  0  0  0
   -0.3572    0.2062    0.0000 C   0  0  0  0  0  0  0  0  0  0  0  0
   -1.0717    0.6187    0.0000 C   0  0  0  0  0  0  0  0  0  0  0  0
   -1.7862    0.2062    0.0000 C   0  0  0  0  0  0  0  0  0  0  0  0
   -2.5006    0.6187    0.0000 C   0  0  0  0  0  0  0  0  0  0  0  0
   -2.5006    1.4438    0.0000 C   0  0  0  0  0  0  0  0  0  0  0  0
   -3.2151    1.8563    0.0000 Br  0  0  0  0  0  0  0  0  0  0  0  0
   -1.7862    1.8563    0.0000 C   0  0  0  0  0  0  0  0  0  0  0  0
   -1.0717    1.4438    0.0000 C   0  0  0  0  0  0  0  0  0  0  0  0
    1.7862    0.6187    0.0000 C   0  0  0  0  0  0  0  0  0  0  0  0
  1  2  1  0      
  2  3  2  0      
  3  4  1  0      
  4  5  1  0      
  4  6  2  0      
  6  7  1  0      
  7  8  1  0      
  8  9  2  0      
  9 10  1  0      
 10 11  2  0      
 11 12  1  0      
 12 13  2  0      
 13 14  1  0      
 13 15  1  0      
 15 16  2  0      
 10 16  1  0      
  7 17  2  0      
  2 17  1  0      
M  END

>  <RackCode>
HYCPK72334

>  <Cat. No.>
HY-124113

>  <Product Name>
4'-Bromo-resveratrol

>  <ROW>
K

>  <COLUMN>
8

>  <CAS No.>
1224713-90-9

>  <MWt>
291.14

>  <Target>
Apoptosis; Sirtuin

>  <Saltdate>


>  <Smiles>
OC1=CC(O)=CC(/C=C/C2=CC=C(C=C2)Br)=C1

>  <Solvent>
DMSO Solution

>  <Batch No.>
159472

>  <Quantity>
10mM  * 50uL

>  <Pathway>
Apoptosis; Cell Cycle/DNA Damage; Epigenetics

>  <Synonyms>
4¡ä©\BR

>  <Formula>
C14H11BrO2

>  <Research_Area>
Cancer

>  <Clinical_Information>
No Development Reported

>  <SUPPLIER>
MedChemExpress

$$$$
Untitled Document
  ChemDraw12032009072D

 12 13  0  0  0  0  0  0  0  0999 V2000
   -0.7145   -0.8250    0.0000 C   0  0  0  0  0  0  0  0  0  0  0  0
   -1.4289   -0.4125    0.0000 N   0  0  0  0  0  0  0  0  0  0  0  0
   -1.4289    0.4125    0.0000 C   0  0  0  0  0  0  0  0  0  0  0  0
   -0.7145    0.8250    0.0000 C   0  0  0  0  0  0  0  0  0  0  0  0
   -0.0000    0.4125    0.0000 C   0  0  0  0  0  0  0  0  0  0  0  0
    0.7145    0.8250    0.0000 C   0  0  0  0  0  0  0  0  0  0  0  0
    1.4289    0.4125    0.0000 C   0  0  0  0  0  0  0  0  0  0  0  0
    1.4289   -0.4125    0.0000 C   0  0  0  0  0  0  0  0  0  0  0  0
    0.7145   -0.8250    0.0000 C   0  0  0  0  0  0  0  0  0  0  0  0
   -0.0000   -0.4125    0.0000 C   0  0  0  0  0  0  0  0  0  0  0  0
   -0.7145   -1.6500    0.0000 O   0  0  0  0  0  0  0  0  0  0  0  0
    0.7145    1.6500    0.0000 N   0  0  0  0  0  0  0  0  0  0  0  0
  1  2  1  0      
  2  3  1  0      
  3  4  2  0      
  4  5  1  0      
  5  6  1  0      
  6  7  2  0      
  7  8  1  0      
  8  9  2  0      
  9 10  1  0      
  1 10  1  0      
  5 10  2  0      
  1 11  2  0      
  6 12  1  0      
M  END

>  <RackCode>
HYCPK72334

>  <Cat. No.>
HY-W006566

>  <Product Name>
5-AIQ

>  <ROW>
L

>  <COLUMN>
8

>  <CAS No.>
93117-08-9

>  <MWt>
160.17

>  <Target>
PARP

>  <Saltdate>


>  <Smiles>
O=C1NC=CC2=C1C=CC=C2N

>  <Solvent>
DMSO Solution

>  <Batch No.>
291042

>  <Quantity>
10mM  * 50uL

>  <Pathway>
Cell Cycle/DNA Damage; Epigenetics

>  <Synonyms>
5-Aminoisoquinolin-1-one

>  <Formula>
C9H8N2O

>  <Research_Area>
Cancer

>  <Clinical_Information>
No Development Reported

>  <SUPPLIER>
MedChemExpress

$$$$
Untitled Document
  ChemDraw07131815452D

 37 41  0  0  0  0  0  0  0  0999 V2000
   -2.0393   -0.1762    0.0000 C   0  0  0  0  0  0  0  0  0  0  0  0
   -2.0393   -1.0012    0.0000 O   0  0  0  0  0  0  0  0  0  0  0  0
    1.3737    0.6488    0.0000 C   0  0  0  0  0  0  0  0  0  0  0  0
    0.8888   -0.0187    0.0000 N   0  0  0  0  0  0  0  0  0  0  0  0
    0.1041    0.2363    0.0000 C   0  0  0  0  0  0  0  0  0  0  0  0
    0.1041    1.0613    0.0000 C   0  0  0  0  0  0  0  0  0  0  0  0
    0.8888    1.3162    0.0000 N   0  0  0  0  0  0  0  0  0  0  0  0
   -0.6103   -0.1762    0.0000 C   0  0  0  0  0  0  0  0  0  0  0  0
   -1.3248    0.2363    0.0000 C   0  0  0  0  0  0  0  0  0  0  0  0
   -1.3248    1.0613    0.0000 C   0  0  0  0  0  0  0  0  0  0  0  0
   -0.6103    1.4738    0.0000 C   0  0  0  0  0  0  0  0  0  0  0  0
    1.1437    2.1008    0.0000 C   0  0  0  0  0  0  0  0  0  0  0  0
   -0.6103    2.2988    0.0000 O   0  0  0  0  0  0  0  0  0  0  0  0
   -1.3248    2.7113    0.0000 C   0  0  0  0  0  0  0  0  0  0  0  0
    2.6836   -0.0187    0.0000 N   0  0  0  0  0  0  0  0  0  0  0  0
    2.1987    0.6488    0.0000 C   0  0  0  0  0  0  0  0  0  0  0  0
    2.6836    1.3162    0.0000 C   0  0  0  0  0  0  0  0  0  0  0  0
    3.4682    1.0613    0.0000 C   0  0  0  0  0  0  0  0  0  0  0  0
    4.1827    1.4738    0.0000 C   0  0  0  0  0  0  0  0  0  0  0  0
    4.8972    1.0613    0.0000 C   0  0  0  0  0  0  0  0  0  0  0  0
    4.8972    0.2363    0.0000 C   0  0  0  0  0  0  0  0  0  0  0  0
    4.1827   -0.1762    0.0000 C   0  0  0  0  0  0  0  0  0  0  0  0
    3.4682    0.2363    0.0000 C   0  0  0  0  0  0  0  0  0  0  0  0
    2.4287   -0.8033    0.0000 C   0  0  0  0  0  0  0  0  0  0  0  0
    1.6217   -0.9748    0.0000 C   0  0  0  0  0  0  0  0  0  0  0  0
    1.0086   -1.5269    0.0000 C   0  0  0  0  0  0  0  0  0  0  0  0
    0.8371   -0.7199    0.0000 C   0  0  0  0  0  0  0  0  0  0  0  0
   -2.7538    0.2363    0.0000 N   0  0  0  0  0  0  0  0  0  0  0  0
   -3.4682   -0.1762    0.0000 C   0  0  0  0  0  0  0  0  0  0  0  0
   -4.1827    0.2363    0.0000 C   0  0  0  0  0  0  0  0  0  0  0  0
   -4.1827    1.0613    0.0000 C   0  0  0  0  0  0  0  0  0  0  0  0
   -3.4682    1.4738    0.0000 C   0  0  0  0  0  0  0  0  0  0  0  0
   -2.7538    1.0613    0.0000 C   0  0  0  0  0  0  0  0  0  0  0  0
   -4.8972    1.4738    0.0000 O   0  0  0  0  0  0  0  0  0  0  0  0
   -4.8972   -0.1762    0.0000 N   0  0  0  0  0  0  0  0  0  0  0  0
   -1.2566   -2.7113    0.0000 H   0  0  0  0  0  0  0  0  0  0  0  0
   -0.4316   -2.7113    0.0000 Cl  0  0  0  0  0  0  0  0  0  0  0  0
  1  2  2  0      
  3  4  2  0      
  4  5  1  0      
  5  6  1  0      
  6  7  1  0      
  3  7  1  0      
  8  9  1  0      
  9 10  2  0      
 10 11  1  0      
  6 11  2  0      
  5  8  2  0      
  7 12  1  0      
 13 14  1  0      
 11 13  1  0      
 15 16  1  0      
 16 17  2  0      
 17 18  1  0      
 18 19  1  0      
 19 20  2  0      
 20 21  1  0      
 21 22  2  0      
 22 23  1  0      
 15 23  1  0      
 18 23  2  0      
 25 26  1  0      
 26 27  1  0      
 25 27  1  0      
 24 25  1  0      
 15 24  1  0      
  3 16  1  0      
  1  9  1  0      
 28 29  1  0      
 29 30  1  0      
 30 31  1  0      
 31 32  1  0      
 32 33  1  0      
 28 33  1  0      
 31 34  1  6      
 30 35  1  6      
  1 28  1  0      
 36 37  1  0      
M  END

>  <RackCode>
HYCPK72334

>  <Cat. No.>
HY-100514

>  <Product Name>
GSK484 (hydrochloride)

>  <ROW>
M

>  <COLUMN>
8

>  <CAS No.>
1652591-81-5

>  <MWt>
510.03

>  <Target>
Protein Arginine Deiminase

>  <Saltdate>
Hydrochloride

>  <Smiles>
O=C(N1C[C@H](N)[C@H](O)CC1)C2=CC(OC)=C3C(N=C(C(N4CC5CC5)=CC6=C4C=CC=C6)N3C)=C2.[H]Cl

>  <Solvent>
DMSO Solution

>  <Batch No.>
158404

>  <Quantity>
10mM  * 50uL

>  <Pathway>
Epigenetics

>  <Synonyms>


>  <Formula>
C27H32ClN5O3

>  <Research_Area>
Cancer; Inflammation/Immunology; Cardiovascular Disease

>  <Clinical_Information>
No Development Reported

>  <SUPPLIER>
MedChemExpress

$$$$
Untitled Document
  ChemDraw09121709262D

 43 46  0  0  0  0  0  0  0  0999 V2000
    7.4008    0.6731    0.0000 H   0  0  0  0  0  0  0  0  0  0  0  0
    6.5758    0.6731    0.0000 C   0  0  0  0  0  0  0  0  0  0  0  0
    6.9883    1.3875    0.0000 O   0  0  0  0  0  0  0  0  0  0  0  0
    6.5758   -0.1519    0.0000 C   0  0  0  0  0  0  0  0  0  0  0  0
    7.4008   -0.1519    0.0000 C   0  0  0  0  0  0  0  0  0  0  0  0
    7.9842   -0.7353    0.0000 O   0  0  0  0  0  0  0  0  0  0  0  0
    6.9883   -0.8664    0.0000 H   0  0  0  0  0  0  0  0  0  0  0  0
    5.8614   -0.5644    0.0000 O   0  0  0  0  0  0  0  0  0  0  0  0
    5.1470   -0.1519    0.0000 C   0  0  0  0  0  0  0  0  0  0  0  0
    5.1470   -0.9769    0.0000 H   0  0  0  0  0  0  0  0  0  0  0  0
    4.4326   -0.5644    0.0000 O   0  0  0  0  0  0  0  0  0  0  0  0
    3.7181   -0.1519    0.0000 C   0  0  0  0  0  0  0  0  0  0  0  0
    3.0036   -0.5644    0.0000 C   0  0  0  0  0  0  0  0  0  0  0  0
    2.2892   -0.1519    0.0000 C   0  0  0  0  0  0  0  0  0  0  0  0
    1.5747   -0.5644    0.0000 C   0  0  0  0  0  0  0  0  0  0  0  0
    0.8602   -0.1519    0.0000 C   0  0  0  0  0  0  0  0  0  0  0  0
    0.1457   -0.5644    0.0000 C   0  0  0  0  0  0  0  0  0  0  0  0
   -0.5687   -0.1519    0.0000 C   0  0  0  0  0  0  0  0  0  0  0  0
   -1.2832   -0.5644    0.0000 C   0  0  0  0  0  0  0  0  0  0  0  0
   -1.9977   -0.1519    0.0000 N   0  0  0  0  0  0  0  0  0  0  0  0
   -2.7513   -0.4875    0.0000 C   0  0  0  0  0  0  0  0  0  0  0  0
   -3.0063   -1.2721    0.0000 N   0  0  0  0  0  0  0  0  0  0  0  0
   -3.8132   -1.4436    0.0000 C   0  0  0  0  0  0  0  0  0  0  0  0
   -4.0681   -2.2283    0.0000 N   0  0  0  0  0  0  0  0  0  0  0  0
   -4.3653   -0.8305    0.0000 N   0  0  0  0  0  0  0  0  0  0  0  0
   -4.1103   -0.0459    0.0000 C   0  0  0  0  0  0  0  0  0  0  0  0
   -4.6623    0.5672    0.0000 O   0  0  0  0  0  0  0  0  0  0  0  0
   -5.4692    0.3957    0.0000 C   0  0  0  0  0  0  0  0  0  0  0  0
   -6.0212    1.0089    0.0000 C   0  0  0  0  0  0  0  0  0  0  0  0
   -6.8417    0.9227    0.0000 C   0  0  0  0  0  0  0  0  0  0  0  0
   -7.1773    1.6764    0.0000 C   0  0  0  0  0  0  0  0  0  0  0  0
   -7.9842    1.8480    0.0000 Br  0  0  0  0  0  0  0  0  0  0  0  0
   -6.5641    2.2283    0.0000 C   0  0  0  0  0  0  0  0  0  0  0  0
   -5.8496    1.8159    0.0000 S   0  0  0  0  0  0  0  0  0  0  0  0
   -3.3033    0.1256    0.0000 C   0  0  0  0  0  0  0  0  0  0  0  0
   -2.8908    0.8401    0.0000 N   0  0  0  0  0  0  0  0  0  0  0  0
   -2.0839    0.6686    0.0000 C   0  0  0  0  0  0  0  0  0  0  0  0
    5.1470    0.6731    0.0000 C   0  0  0  0  0  0  0  0  0  0  0  0
    4.7345    1.3875    0.0000 H   0  0  0  0  0  0  0  0  0  0  0  0
    4.3220    0.6731    0.0000 O   0  0  0  0  0  0  0  0  0  0  0  0
    5.8613    1.0856    0.0000 C   0  0  0  0  0  0  0  0  0  0  0  0
    6.2738    1.8000    0.0000 H   0  0  0  0  0  0  0  0  0  0  0  0
    5.4488    1.8000    0.0000 O   0  0  0  0  0  0  0  0  0  0  0  0
  2  1  1  1      
  2  3  1  6      
  2  4  1  0      
  4  5  1  1      
  5  6  1  0      
  4  7  1  6      
  4  8  1  0      
  8  9  1  0      
  9 10  1  6      
  9 11  1  0      
 11 12  1  0      
 12 13  1  0      
 13 14  1  0      
 14 15  1  0      
 15 16  1  0      
 16 17  1  0      
 17 18  1  0      
 18 19  1  0      
 19 20  1  0      
 20 21  1  0      
 21 22  1  0      
 22 23  2  0      
 23 24  1  0      
 23 25  1  0      
 25 26  2  0      
 26 27  1  0      
 27 28  1  0      
 28 29  1  0      
 29 30  2  0      
 30 31  1  0      
 31 32  1  0      
 31 33  2  0      
 33 34  1  0      
 29 34  1  0      
 21 35  2  0      
 26 35  1  0      
 35 36  1  0      
 36 37  2  0      
 20 37  1  0      
  9 38  1  0      
 38 39  1  1      
 38 40  1  6      
 38 41  1  0      
  2 41  1  0      
 41 42  1  6      
 41 43  1  1      
M  END

>  <RackCode>
HYCPK72334

>  <Cat. No.>
HY-13057

>  <Product Name>
O6BTG-octylglucoside

>  <ROW>
N

>  <COLUMN>
8

>  <CAS No.>
382607-78-5

>  <MWt>
616.53

>  <Target>
DNA Methyltransferase

>  <Saltdate>
Free Base

>  <Smiles>
[H][C@]1([C@]([H])(O[C@@](OCCCCCCCCN2C3=C(N=C2)C(OCC4=CC(Br)=CS4)=NC(N)=N3)([C@](O)([C@]1(O)[H])[H])[H])CO)O

>  <Solvent>
DMSO Solution

>  <Batch No.>
04723

>  <Quantity>
10mM  * 50uL

>  <Pathway>
Epigenetics

>  <Synonyms>
Glucose-conjugated MGMT inhibitor

>  <Formula>
C24H34BrN5O7S

>  <Research_Area>
Cancer

>  <Clinical_Information>
No Development Reported

>  <SUPPLIER>
MedChemExpress

$$$$
Untitled Document
  ChemDraw04152210052D

 32 35  0  0  0  0  0  0  0  0999 V2000
   -3.5725   -1.0313    0.0000 C   0  0  0  0  0  0  0  0  0  0  0  0
   -3.5725   -0.2062    0.0000 C   0  0  0  0  0  0  0  0  0  0  0  0
   -2.8580    0.2062    0.0000 C   0  0  0  0  0  0  0  0  0  0  0  0
   -2.1435   -0.2062    0.0000 C   0  0  0  0  0  0  0  0  0  0  0  0
   -2.1435   -1.0313    0.0000 C   0  0  0  0  0  0  0  0  0  0  0  0
   -2.8580   -1.4437    0.0000 N   0  0  0  0  0  0  0  0  0  0  0  0
   -4.2869   -1.4437    0.0000 C   0  0  0  0  0  0  0  0  0  0  0  0
   -4.2869   -2.2688    0.0000 O   0  0  0  0  0  0  0  0  0  0  0  0
   -5.0015   -1.0313    0.0000 N   0  0  0  0  0  0  0  0  0  0  0  0
   -1.4289   -1.4437    0.0000 C   0  0  0  0  0  0  0  0  0  0  0  0
   -5.7160   -1.4437    0.0000 C   0  0  0  0  0  0  0  0  0  0  0  0
   -1.4289    0.2062    0.0000 N   0  0  0  0  0  0  0  0  0  0  0  0
   -1.4289    1.0313    0.0000 C   0  0  0  0  0  0  0  0  0  0  0  0
   -0.7145    1.4437    0.0000 C   0  0  0  0  0  0  0  0  0  0  0  0
   -0.0000    1.0313    0.0000 N   0  0  0  0  0  0  0  0  0  0  0  0
   -0.0000    0.2062    0.0000 C   0  0  0  0  0  0  0  0  0  0  0  0
   -0.7145   -0.2062    0.0000 C   0  0  0  0  0  0  0  0  0  0  0  0
    0.7145    1.4437    0.0000 C   0  0  0  0  0  0  0  0  0  0  0  0
    3.5725   -0.2062    0.0000 N   0  0  0  0  0  0  0  0  0  0  0  0
    4.2869    0.2062    0.0000 C   0  0  0  0  0  0  0  0  0  0  0  0
    4.2869    1.0313    0.0000 C   0  0  0  0  0  0  0  0  0  0  0  0
    3.5725    1.4437    0.0000 N   0  0  0  0  0  0  0  0  0  0  0  0
    2.8580    1.0313    0.0000 C   0  0  0  0  0  0  0  0  0  0  0  0
    2.1435    1.4437    0.0000 C   0  0  0  0  0  0  0  0  0  0  0  0
    1.4289    1.0313    0.0000 C   0  0  0  0  0  0  0  0  0  0  0  0
    1.4289    0.2062    0.0000 C   0  0  0  0  0  0  0  0  0  0  0  0
    2.1435   -0.2062    0.0000 C   0  0  0  0  0  0  0  0  0  0  0  0
    2.8580    0.2062    0.0000 C   0  0  0  0  0  0  0  0  0  0  0  0
    5.0015    1.4437    0.0000 O   0  0  0  0  0  0  0  0  0  0  0  0
    2.1435    2.2688    0.0000 F   0  0  0  0  0  0  0  0  0  0  0  0
    5.0015   -0.2062    0.0000 C   0  0  0  0  0  0  0  0  0  0  0  0
    5.7160    0.2062    0.0000 C   0  0  0  0  0  0  0  0  0  0  0  0
  1  2  1  0      
  2  3  2  0      
  3  4  1  0      
  4  5  2  0      
  5  6  1  0      
  1  6  2  0      
  7  8  2  0      
  7  9  1  0      
  1  7  1  0      
  5 10  1  0      
  9 11  1  0      
 12 13  1  0      
 13 14  1  0      
 14 15  1  0      
 15 16  1  0      
 16 17  1  0      
 12 17  1  0      
 19 20  2  0      
 20 21  1  0      
 21 22  1  0      
 22 23  1  0      
 23 24  1  0      
 24 25  2  0      
 25 26  1  0      
 26 27  2  0      
 27 28  1  0      
 19 28  1  0      
 23 28  2  0      
 21 29  2  0      
 24 30  1  0      
 31 32  1  0      
 20 31  1  0      
 18 25  1  0      
 15 18  1  0      
  4 12  1  0      
M  END

>  <RackCode>
HYCPK72334

>  <Cat. No.>
HY-144874

>  <Product Name>
AZ3391

>  <ROW>
O

>  <COLUMN>
8

>  <CAS No.>
2756333-42-1

>  <MWt>
438.50

>  <Target>
PARP

>  <Saltdate>


>  <Smiles>
O=C(C1=NC(C)=C(N2CCN(CC3=C(F)C4=C(N=C(CC)C(N4)=O)C=C3)CC2)C=C1)NC

>  <Solvent>
DMSO Solution

>  <Batch No.>
242682

>  <Quantity>
10mM  * 50uL

>  <Pathway>
Cell Cycle/DNA Damage; Epigenetics

>  <Synonyms>


>  <Formula>
C23H27FN6O2

>  <Research_Area>
Cancer; Neurological Disease

>  <Clinical_Information>
No Development Reported

>  <SUPPLIER>
MedChemExpress

$$$$
Untitled Document
  ChemDraw09132215122D

 25 27  0  0  0  0  0  0  0  0999 V2000
    3.5479   -0.4138    0.0000 O   0  0  0  0  0  0  0  0  0  0  0  0
    2.7229   -0.4138    0.0000 C   0  0  0  0  0  0  0  0  0  0  0  0
    2.2380   -1.0813    0.0000 N   0  0  0  0  0  0  0  0  0  0  0  0
    1.4534   -0.8263    0.0000 C   0  0  0  0  0  0  0  0  0  0  0  0
    0.7389   -1.2388    0.0000 C   0  0  0  0  0  0  0  0  0  0  0  0
    0.0244   -0.8263    0.0000 C   0  0  0  0  0  0  0  0  0  0  0  0
    0.0244   -0.0013    0.0000 C   0  0  0  0  0  0  0  0  0  0  0  0
   -0.6900    0.4112    0.0000 N   0  0  0  0  0  0  0  0  0  0  0  0
   -1.4045   -0.0013    0.0000 S   0  0  0  0  0  0  0  0  0  0  0  0
   -0.9920   -0.7158    0.0000 O   0  0  0  0  0  0  0  0  0  0  0  0
   -1.8170    0.7131    0.0000 O   0  0  0  0  0  0  0  0  0  0  0  0
   -2.1190   -0.4138    0.0000 C   0  0  0  0  0  0  0  0  0  0  0  0
   -2.1190   -1.2388    0.0000 C   0  0  0  0  0  0  0  0  0  0  0  0
   -1.4045   -1.6513    0.0000 O   0  0  0  0  0  0  0  0  0  0  0  0
   -0.6900   -1.2388    0.0000 C   0  0  0  0  0  0  0  0  0  0  0  0
   -2.8334   -1.6513    0.0000 C   0  0  0  0  0  0  0  0  0  0  0  0
   -3.5479   -1.2388    0.0000 C   0  0  0  0  0  0  0  0  0  0  0  0
   -3.5479   -0.4138    0.0000 C   0  0  0  0  0  0  0  0  0  0  0  0
   -2.8334   -0.0013    0.0000 C   0  0  0  0  0  0  0  0  0  0  0  0
    0.7389    0.4112    0.0000 C   0  0  0  0  0  0  0  0  0  0  0  0
    1.4534   -0.0013    0.0000 C   0  0  0  0  0  0  0  0  0  0  0  0
    2.2380    0.2536    0.0000 C   0  0  0  0  0  0  0  0  0  0  0  0
    2.4929    1.0382    0.0000 C   0  0  0  0  0  0  0  0  0  0  0  0
    1.9409    1.6513    0.0000 C   0  0  0  0  0  0  0  0  0  0  0  0
    3.2999    1.2098    0.0000 C   0  0  0  0  0  0  0  0  0  0  0  0
  1  2  2  0      
  2  3  1  0      
  3  4  1  0      
  4  5  2  0      
  5  6  1  0      
  6  7  2  0      
  7  8  1  0      
  8  9  1  0      
  9 10  2  0      
  9 11  2  0      
  9 12  1  0      
 12 13  2  0      
 13 14  1  0      
 14 15  1  0      
 13 16  1  0      
 16 17  2  0      
 17 18  1  0      
 18 19  2  0      
 12 19  1  0      
  7 20  1  0      
 20 21  2  0      
  4 21  1  0      
 21 22  1  0      
  2 22  1  0      
 22 23  2  0      
 23 24  1  0      
 23 25  1  0      
M  END

>  <RackCode>
HYCPK72334

>  <Cat. No.>
HY-146208

>  <Product Name>
BRD4 Inhibitor-20

>  <ROW>
P

>  <COLUMN>
8

>  <CAS No.>
2490311-14-1

>  <MWt>
358.41

>  <Target>
Epigenetic Reader Domain

>  <Saltdate>


>  <Smiles>
O=C1NC2=CC=C(C=C2/C1=C(C)\C)NS(=O)(C3=C(C=CC=C3)OC)=O

>  <Solvent>
DMSO Solution

>  <Batch No.>
261946

>  <Quantity>
10mM  * 50uL

>  <Pathway>
Epigenetics

>  <Synonyms>


>  <Formula>
C18H18N2O4S

>  <Research_Area>
Cancer

>  <Clinical_Information>
No Development Reported

>  <SUPPLIER>
MedChemExpress

$$$$
Untitled Document
  ChemDraw05041717012D

 30 33  0  0  0  0  0  0  0  0999 V2000
    0.3572    1.0314    0.0000 C   0  0  0  0  0  0  0  0  0  0  0  0
   -0.3572    1.4439    0.0000 C   0  0  0  0  0  0  0  0  0  0  0  0
   -1.0718    1.0314    0.0000 C   0  0  0  0  0  0  0  0  0  0  0  0
   -1.7857    1.4439    0.0000 C   0  0  0  0  0  0  0  0  0  0  0  0
   -1.7857    2.2684    0.0000 C   0  0  0  0  0  0  0  0  0  0  0  0
   -1.0718    2.6809    0.0000 C   0  0  0  0  0  0  0  0  0  0  0  0
   -0.3572    2.2684    0.0000 C   0  0  0  0  0  0  0  0  0  0  0  0
    0.3572    0.2062    0.0000 O   0  0  0  0  0  0  0  0  0  0  0  0
    1.0718    1.4439    0.0000 N   0  0  0  0  0  0  0  0  0  0  0  0
    1.7857    1.0314    0.0000 C   0  0  0  0  0  0  0  0  0  0  0  0
    1.7857    0.2062    0.0000 C   0  0  0  0  0  0  0  0  0  0  0  0
    2.5002    1.4439    0.0000 C   0  0  0  0  0  0  0  0  0  0  0  0
    2.5002    2.2684    0.0000 C   0  0  0  0  0  0  0  0  0  0  0  0
    3.2147    2.6809    0.0000 C   0  0  0  0  0  0  0  0  0  0  0  0
    3.9293    2.2684    0.0000 C   0  0  0  0  0  0  0  0  0  0  0  0
    3.9293    1.4439    0.0000 C   0  0  0  0  0  0  0  0  0  0  0  0
    3.2147    1.0314    0.0000 C   0  0  0  0  0  0  0  0  0  0  0  0
   -1.0718    0.2062    0.0000 N   0  0  0  0  0  0  0  0  0  0  0  0
   -1.7857   -0.2062    0.0000 C   0  0  0  0  0  0  0  0  0  0  0  0
   -1.7857   -1.0314    0.0000 C   0  0  0  0  0  0  0  0  0  0  0  0
   -1.0718   -1.4439    0.0000 C   0  0  0  0  0  0  0  0  0  0  0  0
   -1.0718   -2.2684    0.0000 C   0  0  0  0  0  0  0  0  0  0  0  0
   -1.7857   -2.6809    0.0000 C   0  0  0  0  0  0  0  0  0  0  0  0
   -2.5002   -2.2684    0.0000 C   0  0  0  0  0  0  0  0  0  0  0  0
   -3.2147   -2.6809    0.0000 C   0  0  0  0  0  0  0  0  0  0  0  0
   -3.9293   -2.2684    0.0000 C   0  0  0  0  0  0  0  0  0  0  0  0
   -3.9293   -1.4439    0.0000 C   0  0  0  0  0  0  0  0  0  0  0  0
   -3.2147   -1.0314    0.0000 C   0  0  0  0  0  0  0  0  0  0  0  0
   -2.5002   -1.4439    0.0000 C   0  0  0  0  0  0  0  0  0  0  0  0
   -0.3572   -1.0314    0.0000 O   0  0  0  0  0  0  0  0  0  0  0  0
  1  2  1  0      
  2  3  1  0      
  3  4  2  0      
  4  5  1  0      
  5  6  2  0      
  6  7  1  0      
  2  7  2  0      
  1  8  2  0      
  1  9  1  0      
 10 11  1  0      
 12 13  1  0      
 13 14  2  0      
 14 15  1  0      
 15 16  2  0      
 16 17  1  0      
 12 17  2  0      
 10 12  1  0      
  9 10  1  0      
 20 21  1  0      
 21 22  2  0      
 22 23  1  0      
 23 24  2  0      
 24 25  1  0      
 25 26  2  0      
 26 27  1  0      
 27 28  2  0      
 28 29  1  0      
 20 29  2  0      
 24 29  1  0      
 21 30  1  0      
 19 20  1  0      
 18 19  2  0      
  3 18  1  0      
M  END

>  <RackCode>
HYCPK72334

>  <Cat. No.>
HY-13515

>  <Product Name>
Sirtinol

>  <ROW>
A

>  <COLUMN>
9

>  <CAS No.>
410536-97-9

>  <MWt>
394.47

>  <Target>
Apoptosis; Autophagy; Sirtuin

>  <Saltdate>
Free Base

>  <Smiles>
O=C(NC(C1=CC=CC=C1)C)C2=CC=CC=C2/N=C/C3=C4C=CC=CC4=CC=C3O

>  <Solvent>
DMSO Solution

>  <Batch No.>
19012

>  <Quantity>
10mM  * 50uL

>  <Pathway>
Apoptosis; Autophagy; Cell Cycle/DNA Damage; Epigenetics

>  <Synonyms>


>  <Formula>
C26H22N2O2

>  <Research_Area>
Cancer

>  <Clinical_Information>
No Development Reported

>  <SUPPLIER>
MedChemExpress

$$$$
Untitled Document
  ChemDraw11032113432D

 19 20  0  0  0  0  0  0  0  0999 V2000
    3.5723    0.4125    0.0000 N   0  0  0  0  0  0  0  0  0  0  0  0
    2.8578    0.0000    0.0000 C   0  0  0  0  0  0  0  0  0  0  0  0
    2.1433    0.4125    0.0000 C   0  0  0  0  0  0  0  0  0  0  0  0
    1.4289    0.0000    0.0000 C   0  0  0  0  0  0  0  0  0  0  0  0
    1.4289   -0.8250    0.0000 C   0  0  0  0  0  0  0  0  0  0  0  0
    0.7145   -1.2375    0.0000 C   0  0  0  0  0  0  0  0  0  0  0  0
   -0.0000   -0.8250    0.0000 C   0  0  0  0  0  0  0  0  0  0  0  0
   -0.7145   -1.2375    0.0000 N   0  0  0  0  0  0  0  0  0  0  0  0
   -1.4289   -0.8250    0.0000 C   0  0  0  0  0  0  0  0  0  0  0  0
   -1.4289    0.0000    0.0000 C   0  0  0  0  0  0  0  0  0  0  0  0
   -0.7145    0.4125    0.0000 Cl  0  0  0  0  0  0  0  0  0  0  0  0
   -2.1433    0.4125    0.0000 C   0  0  0  0  0  0  0  0  0  0  0  0
   -2.1433    1.2375    0.0000 O   0  0  0  0  0  0  0  0  0  0  0  0
   -2.8578    0.0000    0.0000 N   0  0  0  0  0  0  0  0  0  0  0  0
   -2.8578   -0.8250    0.0000 N   0  0  0  0  0  0  0  0  0  0  0  0
   -2.1433   -1.2375    0.0000 C   0  0  0  0  0  0  0  0  0  0  0  0
   -0.0000    0.0000    0.0000 C   0  0  0  0  0  0  0  0  0  0  0  0
    0.7145    0.4125    0.0000 C   0  0  0  0  0  0  0  0  0  0  0  0
   -3.5723    0.4125    0.0000 C   0  0  0  0  0  0  0  0  0  0  0  0
  1  2  1  0      
  2  3  1  0      
  3  4  1  0      
  4  5  2  0      
  5  6  1  0      
  6  7  2  0      
  7  8  1  0      
  8  9  1  0      
  9 10  2  0      
 10 11  1  0      
 10 12  1  0      
 12 13  2  0      
 12 14  1  0      
 14 15  1  0      
 15 16  2  0      
  9 16  1  0      
  7 17  1  0      
 17 18  2  0      
  4 18  1  0      
 14 19  1  0      
M  END

>  <RackCode>
HYCPK72334

>  <Cat. No.>
HY-132889

>  <Product Name>
BPTF-IN-BZ1

>  <ROW>
B

>  <COLUMN>
9

>  <CAS No.>
2766623-38-3

>  <MWt>
278.74

>  <Target>
Epigenetic Reader Domain

>  <Saltdate>


>  <Smiles>
NCCC1=CC=C(C=C1)NC2=C(C(N(C)N=C2)=O)Cl

>  <Solvent>
DMSO Solution

>  <Batch No.>
155530

>  <Quantity>
10mM  * 50uL

>  <Pathway>
Epigenetics

>  <Synonyms>


>  <Formula>
C13H15ClN4O

>  <Research_Area>
Cancer

>  <Clinical_Information>
No Development Reported

>  <SUPPLIER>
MedChemExpress

$$$$
Untitled Document
  ChemDraw06152218232D

 44 47  0  0  0  0  0  0  0  0999 V2000
    5.3585   -3.5062    0.0000 O   0  0  0  0  0  0  0  0  0  0  0  0
    5.3585   -2.6812    0.0000 C   0  0  0  0  0  0  0  0  0  0  0  0
    6.0730   -2.2687    0.0000 O   0  0  0  0  0  0  0  0  0  0  0  0
    4.6441   -2.2687    0.0000 C   0  0  0  0  0  0  0  0  0  0  0  0
    3.9296   -2.6812    0.0000 O   0  0  0  0  0  0  0  0  0  0  0  0
    3.2151   -2.2687    0.0000 C   0  0  0  0  0  0  0  0  0  0  0  0
    2.5006   -2.6812    0.0000 C   0  0  0  0  0  0  0  0  0  0  0  0
    1.7862   -2.2687    0.0000 C   0  0  0  0  0  0  0  0  0  0  0  0
    1.0717   -2.6812    0.0000 O   0  0  0  0  0  0  0  0  0  0  0  0
    0.3572   -2.2687    0.0000 C   0  0  0  0  0  0  0  0  0  0  0  0
    0.3572   -1.4437    0.0000 C   0  0  0  0  0  0  0  0  0  0  0  0
   -0.3572   -1.0313    0.0000 C   0  0  0  0  0  0  0  0  0  0  0  0
   -1.0717   -1.4437    0.0000 C   0  0  0  0  0  0  0  0  0  0  0  0
   -1.0717   -2.2687    0.0000 C   0  0  0  0  0  0  0  0  0  0  0  0
   -0.3572   -2.6812    0.0000 C   0  0  0  0  0  0  0  0  0  0  0  0
   -1.7862   -1.0313    0.0000 C   0  0  0  0  0  0  0  0  0  0  0  0
   -1.7862   -0.2062    0.0000 C   0  0  0  0  0  0  0  0  0  0  0  0
   -2.5006    0.2062    0.0000 C   0  0  0  0  0  0  0  0  0  0  0  0
   -2.5006    1.0313    0.0000 C   0  0  0  0  0  0  0  0  0  0  0  0
   -1.7862    1.4437    0.0000 O   0  0  0  0  0  0  0  0  0  0  0  0
   -3.2151    1.4437    0.0000 N   0  0  0  0  0  0  0  0  0  0  0  0
   -3.2151    2.2687    0.0000 C   0  0  0  0  0  0  0  0  0  0  0  0
   -3.9296    2.6812    0.0000 C   0  0  0  0  0  0  0  0  0  0  0  0
   -3.9296    3.5062    0.0000 C   0  0  0  0  0  0  0  0  0  0  0  0
   -3.2151    3.9187    0.0000 O   0  0  0  0  0  0  0  0  0  0  0  0
   -4.6441    3.9187    0.0000 N   0  0  0  0  0  0  0  0  0  0  0  0
   -5.3585    3.5062    0.0000 C   0  0  0  0  0  0  0  0  0  0  0  0
   -5.3585    2.6812    0.0000 C   0  0  0  0  0  0  0  0  0  0  0  0
   -4.6441    2.2687    0.0000 C   0  0  0  0  0  0  0  0  0  0  0  0
   -4.6441    1.4437    0.0000 C   0  0  0  0  0  0  0  0  0  0  0  0
   -6.0730    3.9187    0.0000 C   0  0  0  0  0  0  0  0  0  0  0  0
   -3.2151   -0.2062    0.0000 C   0  0  0  0  0  0  0  0  0  0  0  0
   -3.2151   -1.0313    0.0000 C   0  0  0  0  0  0  0  0  0  0  0  0
   -2.5006   -1.4437    0.0000 C   0  0  0  0  0  0  0  0  0  0  0  0
   -3.9296   -1.4437    0.0000 N   0  0  0  0  0  0  0  0  0  0  0  0
   -4.6441   -1.0313    0.0000 C   0  0  0  0  0  0  0  0  0  0  0  0
   -5.3585   -1.4437    0.0000 C   0  0  0  0  0  0  0  0  0  0  0  0
   -3.9296   -2.2687    0.0000 C   0  0  0  0  0  0  0  0  0  0  0  0
   -4.6441   -2.6812    0.0000 C   0  0  0  0  0  0  0  0  0  0  0  0
   -4.6441   -3.5062    0.0000 C   0  0  0  0  0  0  0  0  0  0  0  0
   -3.9296   -3.9187    0.0000 O   0  0  0  0  0  0  0  0  0  0  0  0
   -3.2151   -3.5062    0.0000 C   0  0  0  0  0  0  0  0  0  0  0  0
   -3.2151   -2.6812    0.0000 C   0  0  0  0  0  0  0  0  0  0  0  0
   -3.9296    0.2062    0.0000 C   0  0  0  0  0  0  0  0  0  0  0  0
  1  2  2  0      
  2  3  1  0      
  2  4  1  0      
  4  5  1  0      
  5  6  1  0      
  6  7  1  0      
  7  8  1  0      
  8  9  1  0      
  9 10  1  0      
 10 11  1  0      
 11 12  2  0      
 12 13  1  0      
 13 14  2  0      
 14 15  1  0      
 10 15  2  0      
 13 16  1  0      
 16 17  2  0      
 17 18  1  0      
 18 19  1  0      
 19 20  2  0      
 19 21  1  0      
 21 22  1  0      
 22 23  1  0      
 23 24  1  0      
 24 25  2  0      
 24 26  1  0      
 26 27  1  0      
 27 28  2  0      
 28 29  1  0      
 23 29  2  0      
 29 30  1  0      
 27 31  1  0      
 18 32  2  0      
 32 33  1  0      
 33 34  2  0      
 16 34  1  0      
 33 35  1  0      
 35 36  1  0      
 36 37  1  0      
 35 38  1  0      
 38 39  1  0      
 39 40  1  0      
 40 41  1  0      
 41 42  1  0      
 42 43  1  0      
 38 43  1  0      
 32 44  1  0      
M  END

>  <RackCode>
HYCPK72334

>  <Cat. No.>
HY-147090

>  <Product Name>
Tazemetostat de(methylene morpholine)-O-C3-O-C-COOH

>  <ROW>
C

>  <COLUMN>
9

>  <CAS No.>
2750350-39-9

>  <MWt>
605.72

>  <Target>
Histone Methyltransferase

>  <Saltdate>


>  <Smiles>
O=C(COCCCOC1=CC=C(C2=CC(C(NCC3=C(C)C=C(C)NC3=O)=O)=C(C)C(N(C4CCOCC4)CC)=C2)C=C1)O

>  <Solvent>
DMSO Solution

>  <Batch No.>
241271

>  <Quantity>
10mM  * 50uL

>  <Pathway>
Epigenetics

>  <Synonyms>


>  <Formula>
C34H43N3O7

>  <Research_Area>
Cancer

>  <Clinical_Information>
No Development Reported

>  <SUPPLIER>
MedChemExpress

$$$$
Untitled Document
  ChemDraw05201913482D

 34 36  0  0  0  0  0  0  0  0999 V2000
   -3.2151   -1.1853    0.0000 C   0  0  0  0  0  0  0  0  0  0  0  0
   -3.2151   -0.3603    0.0000 C   0  0  0  0  0  0  0  0  0  0  0  0
   -2.5007    0.0522    0.0000 C   0  0  0  0  0  0  0  0  0  0  0  0
   -1.7862   -0.3603    0.0000 C   0  0  0  0  0  0  0  0  0  0  0  0
   -1.7862   -1.1853    0.0000 C   0  0  0  0  0  0  0  0  0  0  0  0
   -2.5007   -1.5978    0.0000 C   0  0  0  0  0  0  0  0  0  0  0  0
   -3.9296   -1.5978    0.0000 C   0  0  0  0  0  0  0  0  0  0  0  0
   -3.9296   -2.4228    0.0000 C   0  0  0  0  0  0  0  0  0  0  0  0
   -4.6441   -2.8353    0.0000 C   0  0  0  0  0  0  0  0  0  0  0  0
   -5.3585   -2.4228    0.0000 C   0  0  0  0  0  0  0  0  0  0  0  0
   -5.3585   -1.5978    0.0000 C   0  0  0  0  0  0  0  0  0  0  0  0
   -4.6441   -1.1853    0.0000 C   0  0  0  0  0  0  0  0  0  0  0  0
   -1.0717    0.0522    0.0000 C   0  0  0  0  0  0  0  0  0  0  0  0
   -1.0717    0.8772    0.0000 O   0  0  0  0  0  0  0  0  0  0  0  0
   -0.3572   -0.3603    0.0000 N   0  0  0  0  0  0  0  0  0  0  0  0
    0.3572    0.0522    0.0000 C   0  0  0  0  0  0  0  0  0  0  0  0
    1.0717   -0.3603    0.0000 C   0  0  0  0  0  0  0  0  0  0  0  0
    1.7862    0.0522    0.0000 C   0  0  0  0  0  0  0  0  0  0  0  0
    2.5007   -0.3603    0.0000 C   0  0  0  0  0  0  0  0  0  0  0  0
    3.2151    0.0522    0.0000 N   0  0  0  0  0  0  0  0  0  0  0  0
    3.9296   -0.3603    0.0000 C   0  0  0  0  0  0  0  0  0  0  0  0
    4.6441    0.0522    0.0000 C   0  0  0  0  0  0  0  0  0  0  0  0
    3.9296   -1.1853    0.0000 N   0  0  0  0  0  0  0  0  0  0  0  0
    5.3585   -0.3603    0.0000 Cl  0  0  0  0  0  0  0  0  0  0  0  0
    0.3572    0.8772    0.0000 C   0  0  0  0  0  0  0  0  0  0  0  0
    1.0247    1.3621    0.0000 N   0  0  0  0  0  0  0  0  0  0  0  0
    0.7697    2.1467    0.0000 C   0  0  0  0  0  0  0  0  0  0  0  0
   -0.0553    2.1467    0.0000 C   0  0  0  0  0  0  0  0  0  0  0  0
   -0.3102    1.3621    0.0000 N   0  0  0  0  0  0  0  0  0  0  0  0
    1.1822    2.8612    0.0000 C   0  0  0  0  0  0  0  0  0  0  0  0
    0.7697    3.5757    0.0000 C   0  0  0  0  0  0  0  0  0  0  0  0
   -0.0553    3.5757    0.0000 C   0  0  0  0  0  0  0  0  0  0  0  0
   -0.4678    2.8612    0.0000 C   0  0  0  0  0  0  0  0  0  0  0  0
   -0.1732   -3.5757    0.0000 Cl  0  0  0  0  0  0  0  0  0  0  0  0
  1  2  1  0      
  2  3  2  0      
  3  4  1  0      
  4  5  2  0      
  5  6  1  0      
  1  6  2  0      
  7  8  1  0      
  8  9  2  0      
  9 10  1  0      
 10 11  2  0      
 11 12  1  0      
  7 12  2  0      
  1  7  1  0      
 13 14  2  0      
 13 15  1  0      
  4 13  1  0      
 16 17  1  0      
 17 18  1  0      
 18 19  1  0      
 21 22  1  0      
 21 23  2  0      
 22 24  1  0      
 20 21  1  0      
 19 20  1  0      
 25 26  2  0      
 26 27  1  0      
 27 28  1  0      
 28 29  1  0      
 25 29  1  0      
 30 31  1  0      
 31 32  2  0      
 32 33  1  0      
 28 33  2  0      
 27 30  2  0      
 16 25  1  0      
 16 15  1  6      
M  END

>  <RackCode>
HYCPK72334

>  <Cat. No.>
HY-111347A

>  <Product Name>
BB-Cl-Amidine (hydrochloride)

>  <ROW>
D

>  <COLUMN>
9

>  <CAS No.>
2436747-41-8

>  <MWt>
496.43

>  <Target>
Protein Arginine Deiminase

>  <Saltdate>
Hydrochloride

>  <Smiles>
O=C(C1=CC=C(C2=CC=CC=C2)C=C1)N[C@H](C3=NC4=CC=CC=C4N3)CCCNC(CCl)=N.Cl

>  <Solvent>
DMSO Solution

>  <Batch No.>
148010

>  <Quantity>
10mM  * 50uL

>  <Pathway>
Epigenetics

>  <Synonyms>


>  <Formula>
C26H27Cl2N5O

>  <Research_Area>
Inflammation/Immunology

>  <Clinical_Information>
No Development Reported

>  <SUPPLIER>
MedChemExpress

$$$$
Untitled Document
  ChemDraw05151714542D

 24 26  0  0  0  0  0  0  0  0999 V2000
    1.0569    1.0226    0.0000 C   0  0  0  0  0  0  0  0  0  0  0  0
    0.6444    0.3081    0.0000 N   0  0  0  0  0  0  0  0  0  0  0  0
   -0.1806    0.3081    0.0000 C   0  0  0  0  0  0  0  0  0  0  0  0
   -0.5931    1.0226    0.0000 C   0  0  0  0  0  0  0  0  0  0  0  0
   -0.1806    1.7371    0.0000 C   0  0  0  0  0  0  0  0  0  0  0  0
    0.6444    1.7371    0.0000 N   0  0  0  0  0  0  0  0  0  0  0  0
    1.1964    2.3502    0.0000 N   0  0  0  0  0  0  0  0  0  0  0  0
    1.9501    2.0146    0.0000 C   0  0  0  0  0  0  0  0  0  0  0  0
    1.8639    1.1941    0.0000 C   0  0  0  0  0  0  0  0  0  0  0  0
    2.4748    0.6440    0.0000 C   0  0  0  0  0  0  0  0  0  0  0  0
    3.0858    0.0939    0.0000 N   0  0  0  0  0  0  0  0  0  0  0  0
   -0.5917   -0.4038    0.0000 C   0  0  0  0  0  0  0  0  0  0  0  0
   -0.5917    2.4491    0.0000 O   0  0  0  0  0  0  0  0  0  0  0  0
   -1.4152    1.0226    0.0000 C   0  0  0  0  0  0  0  0  0  0  0  0
   -1.8263    1.7346    0.0000 C   0  0  0  0  0  0  0  0  0  0  0  0
   -1.8263    0.3106    0.0000 C   0  0  0  0  0  0  0  0  0  0  0  0
   -1.4122   -0.4901    0.0000 C   0  0  0  0  0  0  0  0  0  0  0  0
   -1.5837   -1.2971    0.0000 N   0  0  0  0  0  0  0  0  0  0  0  0
   -0.8692   -1.7096    0.0000 N   0  0  0  0  0  0  0  0  0  0  0  0
   -0.2561   -1.1575    0.0000 C   0  0  0  0  0  0  0  0  0  0  0  0
   -2.3347   -1.6314    0.0000 C   0  0  0  0  0  0  0  0  0  0  0  0
   -3.0858   -1.9658    0.0000 C   0  0  0  0  0  0  0  0  0  0  0  0
   -2.4207   -2.4491    0.0000 C   0  0  0  0  0  0  0  0  0  0  0  0
   -2.9999   -1.1482    0.0000 C   0  0  0  0  0  0  0  0  0  0  0  0
  1  2  1  0      
  2  3  1  0      
  3  4  2  0      
  4  5  1  0      
  5  6  1  0      
  1  6  1  0      
  7  8  2  0      
  8  9  1  0      
  6  7  1  0      
  1  9  2  0      
 10 11  3  0      
  9 10  1  0      
  3 12  1  0      
  5 13  2  0      
 14 15  1  0      
 14 16  1  0      
  4 14  1  0      
 12 17  2  0      
 17 18  1  0      
 18 19  1  0      
 19 20  2  0      
 20 12  1  0      
 18 21  1  0      
 21 22  1  0      
 21 23  1  0      
 21 24  1  0      
M  END

>  <RackCode>
HYCPK72334

>  <Cat. No.>
HY-100422

>  <Product Name>
KDM5-IN-1

>  <ROW>
E

>  <COLUMN>
9

>  <CAS No.>
1628210-26-3

>  <MWt>
324.38

>  <Target>
Histone Demethylase

>  <Saltdate>
Free Base

>  <Smiles>
N#CC1=C2NC(C3=CN(C(C)(C)C)N=C3)=C(C(C)C)C(N2N=C1)=O

>  <Solvent>
DMSO Solution

>  <Batch No.>
24537

>  <Quantity>
10mM  * 50uL

>  <Pathway>
Epigenetics

>  <Synonyms>


>  <Formula>
C17H20N6O

>  <Research_Area>
Cancer

>  <Clinical_Information>
No Development Reported

>  <SUPPLIER>
MedChemExpress

$$$$
Untitled Document
  ChemDraw08252314392D

 26 29  0  0  0  0  0  0  0  0999 V2000
   -4.6440   -1.6500    0.0000 C   0  0  0  0  0  0  0  0  0  0  0  0
   -3.9295   -2.0624    0.0000 O   0  0  0  0  0  0  0  0  0  0  0  0
   -3.2150   -1.6500    0.0000 C   0  0  0  0  0  0  0  0  0  0  0  0
   -3.2150   -0.8250    0.0000 C   0  0  0  0  0  0  0  0  0  0  0  0
   -2.5005   -0.4125    0.0000 C   0  0  0  0  0  0  0  0  0  0  0  0
   -1.7861   -0.8250    0.0000 C   0  0  0  0  0  0  0  0  0  0  0  0
   -1.7861   -1.6500    0.0000 C   0  0  0  0  0  0  0  0  0  0  0  0
   -2.5005   -2.0624    0.0000 C   0  0  0  0  0  0  0  0  0  0  0  0
   -1.0717   -0.4125    0.0000 N   0  0  0  0  0  0  0  0  0  0  0  0
   -0.3572   -0.8250    0.0000 C   0  0  0  0  0  0  0  0  0  0  0  0
    0.3572   -0.4125    0.0000 C   0  0  0  0  0  0  0  0  0  0  0  0
    0.3572    0.4125    0.0000 N   0  0  0  0  0  0  0  0  0  0  0  0
    1.0717    0.8250    0.0000 C   0  0  0  0  0  0  0  0  0  0  0  0
    1.7861    0.4125    0.0000 N   0  0  0  0  0  0  0  0  0  0  0  0
    2.5005    0.8250    0.0000 C   0  0  0  0  0  0  0  0  0  0  0  0
    3.2150    0.4125    0.0000 C   0  0  0  0  0  0  0  0  0  0  0  0
    3.9295    0.8250    0.0000 C   0  0  0  0  0  0  0  0  0  0  0  0
    4.6440    0.4125    0.0000 F   0  0  0  0  0  0  0  0  0  0  0  0
    3.9295    1.6500    0.0000 C   0  0  0  0  0  0  0  0  0  0  0  0
    4.6440    2.0624    0.0000 F   0  0  0  0  0  0  0  0  0  0  0  0
    3.2150    2.0624    0.0000 C   0  0  0  0  0  0  0  0  0  0  0  0
    2.5005    1.6500    0.0000 C   0  0  0  0  0  0  0  0  0  0  0  0
    1.0717    1.6500    0.0000 O   0  0  0  0  0  0  0  0  0  0  0  0
   -0.3572    0.8250    0.0000 C   0  0  0  0  0  0  0  0  0  0  0  0
   -0.0207    0.0000    0.0000 C   0  0  0  0  0  0  0  0  0  0  0  0
   -1.0717    0.4125    0.0000 C   0  0  0  0  0  0  0  0  0  0  0  0
  1  2  1  0      
  2  3  1  0      
  3  4  2  0      
  4  5  1  0      
  5  6  2  0      
  6  7  1  0      
  7  8  2  0      
  3  8  1  0      
  6  9  1  0      
  9 10  1  0      
 10 11  1  0      
 11 12  1  0      
 12 13  1  0      
 13 14  1  0      
 14 15  1  0      
 15 16  2  0      
 16 17  1  0      
 17 18  1  0      
 17 19  2  0      
 19 20  1  0      
 19 21  1  0      
 21 22  2  0      
 15 22  1  0      
 13 23  2  0      
 12 24  1  0      
 24 25  1  1      
 10 25  1  1      
 24 26  1  0      
  9 26  1  0      
M  END

>  <RackCode>
HYCPK72334

>  <Cat. No.>
HY-155888

>  <Product Name>
IV-255

>  <ROW>
F

>  <COLUMN>
9

>  <CAS No.>


>  <MWt>
359.37

>  <Target>
Epigenetic Reader Domain

>  <Saltdate>


>  <Smiles>
COC1=CC=C(N2[C@H]3CN([C@@H](C2)C3)C(NC4=CC(F)=C(C=C4)F)=O)C=C1

>  <Solvent>
DMSO Solution

>  <Batch No.>
305766

>  <Quantity>
10mM  * 50uL

>  <Pathway>
Epigenetics

>  <Synonyms>


>  <Formula>
C19H19F2N3O2

>  <Research_Area>
Cancer

>  <Clinical_Information>
No Development Reported

>  <SUPPLIER>
MedChemExpress

$$$$
Untitled Document
  ChemDraw07102009122D

 30 32  0  0  0  0  0  0  0  0999 V2000
   -0.7145    0.0000    0.0000 C   0  0  0  0  0  0  0  0  0  0  0  0
    0.0000   -0.4125    0.0000 C   0  0  0  0  0  0  0  0  0  0  0  0
    0.0000   -1.2375    0.0000 C   0  0  0  0  0  0  0  0  0  0  0  0
    0.7145   -1.6500    0.0000 C   0  0  0  0  0  0  0  0  0  0  0  0
    1.4289   -1.2375    0.0000 C   0  0  0  0  0  0  0  0  0  0  0  0
    1.4289   -0.4125    0.0000 C   0  0  0  0  0  0  0  0  0  0  0  0
    0.7145    0.0000    0.0000 C   0  0  0  0  0  0  0  0  0  0  0  0
   -0.7145    0.8250    0.0000 O   0  0  0  0  0  0  0  0  0  0  0  0
   -1.4289   -0.4125    0.0000 N   0  0  0  0  0  0  0  0  0  0  0  0
    2.1434    0.0000    0.0000 O   0  0  0  0  0  0  0  0  0  0  0  0
    2.1434    0.8250    0.0000 C   0  0  0  0  0  0  0  0  0  0  0  0
    1.4289    1.2375    0.0000 C   0  0  0  0  0  0  0  0  0  0  0  0
    2.8579    1.2375    0.0000 C   0  0  0  0  0  0  0  0  0  0  0  0
    2.8579    2.0625    0.0000 C   0  0  0  0  0  0  0  0  0  0  0  0
    3.5724    2.4750    0.0000 C   0  0  0  0  0  0  0  0  0  0  0  0
    4.2868    2.0625    0.0000 C   0  0  0  0  0  0  0  0  0  0  0  0
    4.2868    1.2375    0.0000 C   0  0  0  0  0  0  0  0  0  0  0  0
    3.5724    0.8250    0.0000 C   0  0  0  0  0  0  0  0  0  0  0  0
   -2.1434    0.0000    0.0000 C   0  0  0  0  0  0  0  0  0  0  0  0
   -2.8579   -0.4125    0.0000 C   0  0  0  0  0  0  0  0  0  0  0  0
   -3.5724    0.0000    0.0000 C   0  0  0  0  0  0  0  0  0  0  0  0
   -3.5724    0.8250    0.0000 C   0  0  0  0  0  0  0  0  0  0  0  0
   -2.8579    1.2375    0.0000 C   0  0  0  0  0  0  0  0  0  0  0  0
   -2.1434    0.8250    0.0000 C   0  0  0  0  0  0  0  0  0  0  0  0
   -4.2868    1.2375    0.0000 O   0  0  0  0  0  0  0  0  0  0  0  0
    0.7145   -2.4750    0.0000 F   0  0  0  0  0  0  0  0  0  0  0  0
    2.8579   -1.2375    0.0000 C   0  0  0  0  0  0  0  0  0  0  0  0
    3.5724   -1.6500    0.0000 C   0  0  0  0  0  0  0  0  0  0  0  0
    2.8579   -0.4125    0.0000 O   0  0  0  0  0  0  0  0  0  0  0  0
    2.1434   -1.6500    0.0000 N   0  0  0  0  0  0  0  0  0  0  0  0
  1  2  1  0      
  2  3  1  0      
  3  4  2  0      
  4  5  1  0      
  5  6  2  0      
  6  7  1  0      
  2  7  2  0      
  1  8  2  0      
  1  9  1  0      
 11 12  1  1      
 10 11  1  0      
 13 14  1  0      
 14 15  2  0      
 15 16  1  0      
 16 17  2  0      
 17 18  1  0      
 13 18  2  0      
 11 13  1  0      
  6 10  1  0      
 19 20  1  0      
 20 21  1  0      
 21 22  1  0      
 22 23  1  0      
 23 24  1  0      
 19 24  1  0      
 22 25  1  6      
 19  9  1  1      
  4 26  1  0      
 27 28  1  0      
 27 29  2  0      
 27 30  1  0      
  5 30  1  0      
M  END

>  <RackCode>
HYCPK72334

>  <Cat. No.>
HY-136571

>  <Product Name>
GSK046

>  <ROW>
G

>  <COLUMN>
9

>  <CAS No.>
2474876-09-8

>  <MWt>
414.47

>  <Target>
Epigenetic Reader Domain

>  <Saltdate>


>  <Smiles>
O=C(N[C@H]1CC[C@H](O)CC1)C2=CC(O[C@H](C3=CC=CC=C3)C)=C(NC(C)=O)C(F)=C2

>  <Solvent>
DMSO Solution

>  <Batch No.>
288272

>  <Quantity>
10mM  * 50uL

>  <Pathway>
Epigenetics

>  <Synonyms>
iBET-BD2

>  <Formula>
C23H27FN2O4

>  <Research_Area>
Inflammation/Immunology

>  <Clinical_Information>
No Development Reported

>  <SUPPLIER>
MedChemExpress

$$$$
Untitled Document
  ChemDraw03082214392D

 40 44  0  0  0  0  0  0  0  0999 V2000
   -4.5422    1.4559    0.0000 O   0  0  0  0  0  0  0  0  0  0  0  0
   -4.2067    0.7023    0.0000 C   0  0  0  0  0  0  0  0  0  0  0  0
   -4.6192   -0.0122    0.0000 N   0  0  0  0  0  0  0  0  0  0  0  0
   -4.0671   -0.6253    0.0000 N   0  0  0  0  0  0  0  0  0  0  0  0
   -3.3135   -0.2898    0.0000 C   0  0  0  0  0  0  0  0  0  0  0  0
   -2.5990   -0.7023    0.0000 C   0  0  0  0  0  0  0  0  0  0  0  0
   -2.5990   -1.5273    0.0000 C   0  0  0  0  0  0  0  0  0  0  0  0
   -1.8845   -1.9397    0.0000 C   0  0  0  0  0  0  0  0  0  0  0  0
   -1.1702   -1.5273    0.0000 C   0  0  0  0  0  0  0  0  0  0  0  0
   -0.4557   -1.9397    0.0000 O   0  0  0  0  0  0  0  0  0  0  0  0
    0.2588   -1.5273    0.0000 C   0  0  0  0  0  0  0  0  0  0  0  0
   -1.1702   -0.7023    0.0000 C   0  0  0  0  0  0  0  0  0  0  0  0
   -0.4557   -0.2898    0.0000 O   0  0  0  0  0  0  0  0  0  0  0  0
    0.2588   -0.7023    0.0000 C   0  0  0  0  0  0  0  0  0  0  0  0
    0.9733   -0.2898    0.0000 C   0  0  0  0  0  0  0  0  0  0  0  0
    1.6876   -0.7023    0.0000 C   0  0  0  0  0  0  0  0  0  0  0  0
    2.4021   -0.2898    0.0000 C   0  0  0  0  0  0  0  0  0  0  0  0
    3.1166   -0.7023    0.0000 O   0  0  0  0  0  0  0  0  0  0  0  0
    3.8310   -0.2898    0.0000 C   0  0  0  0  0  0  0  0  0  0  0  0
    3.8310    0.5352    0.0000 C   0  0  0  0  0  0  0  0  0  0  0  0
    4.5455    0.9477    0.0000 C   0  0  0  0  0  0  0  0  0  0  0  0
    5.2599    0.5352    0.0000 C   0  0  0  0  0  0  0  0  0  0  0  0
    5.2599   -0.2898    0.0000 C   0  0  0  0  0  0  0  0  0  0  0  0
    4.5455   -0.7023    0.0000 C   0  0  0  0  0  0  0  0  0  0  0  0
    5.9744    0.9477    0.0000 C   0  0  0  0  0  0  0  0  0  0  0  0
    6.0606    1.7681    0.0000 N   0  0  0  0  0  0  0  0  0  0  0  0
    6.8676    1.9397    0.0000 N   0  0  0  0  0  0  0  0  0  0  0  0
    7.2801    1.2253    0.0000 N   0  0  0  0  0  0  0  0  0  0  0  0
    6.7280    0.6122    0.0000 N   0  0  0  0  0  0  0  0  0  0  0  0
   -1.8845   -0.2898    0.0000 C   0  0  0  0  0  0  0  0  0  0  0  0
   -3.3997    0.5307    0.0000 C   0  0  0  0  0  0  0  0  0  0  0  0
   -3.1448    1.3153    0.0000 C   0  0  0  0  0  0  0  0  0  0  0  0
   -2.5927    0.7023    0.0000 C   0  0  0  0  0  0  0  0  0  0  0  0
   -5.4396   -0.0985    0.0000 C   0  0  0  0  0  0  0  0  0  0  0  0
   -5.7179   -0.8751    0.0000 C   0  0  0  0  0  0  0  0  0  0  0  0
   -6.4986   -1.1417    0.0000 C   0  0  0  0  0  0  0  0  0  0  0  0
   -7.1938   -0.6976    0.0000 C   0  0  0  0  0  0  0  0  0  0  0  0
   -7.2801    0.1229    0.0000 C   0  0  0  0  0  0  0  0  0  0  0  0
   -6.6923    0.7019    0.0000 C   0  0  0  0  0  0  0  0  0  0  0  0
   -5.8732    0.6034    0.0000 C   0  0  0  0  0  0  0  0  0  0  0  0
  1  2  2  0      
  2  3  1  0      
  3  4  1  0      
  4  5  2  0      
  5  6  1  0      
  6  7  1  0      
  7  8  2  0      
  8  9  1  0      
  9 10  1  0      
 10 11  1  0      
  9 12  2  0      
 12 13  1  0      
 13 14  1  0      
 14 15  1  0      
 15 16  1  0      
 16 17  1  0      
 17 18  1  0      
 18 19  1  0      
 19 20  1  0      
 20 21  2  0      
 21 22  1  0      
 22 23  2  0      
 23 24  1  0      
 19 24  2  0      
 22 25  1  0      
 25 26  2  0      
 26 27  1  0      
 27 28  2  0      
 28 29  1  0      
 25 29  1  0      
 12 30  1  0      
  6 30  2  0      
  5 31  1  0      
  2 31  1  0      
 31 32  1  0      
 31 33  1  0      
  3 34  1  0      
 34 35  1  0      
 35 36  1  0      
 36 37  1  0      
 37 38  1  0      
 38 39  1  0      
 39 40  1  0      
 34 40  1  0      
M  END

>  <RackCode>
HYCPK72334

>  <Cat. No.>
HY-144433

>  <Product Name>
DNMT3A-IN-1

>  <ROW>
H

>  <COLUMN>
9

>  <CAS No.>
1403598-56-0

>  <MWt>
546.66

>  <Target>
DNA Methyltransferase

>  <Saltdate>


>  <Smiles>
O=C1N(C2CCCCCC2)N=C(C1(C)C)C3=CC(OCCCCOC4=CC=C(C5=NN=NN5)C=C4)=C(OC)C=C3

>  <Solvent>
DMSO Solution

>  <Batch No.>
229877

>  <Quantity>
10mM  * 50uL

>  <Pathway>
Epigenetics

>  <Synonyms>


>  <Formula>
C30H38N6O4

>  <Research_Area>
Infection

>  <Clinical_Information>
No Development Reported

>  <SUPPLIER>
MedChemExpress

$$$$
Untitled Document
  ChemDraw03302314422D

 22 25  0  0  0  0  0  0  0  0999 V2000
    0.7145    2.6812    0.0000 O   0  0  0  0  0  0  0  0  0  0  0  0
    1.4289    2.2687    0.0000 C   0  0  0  0  0  0  0  0  0  0  0  0
    1.4289    1.4437    0.0000 C   0  0  0  0  0  0  0  0  0  0  0  0
    0.7145    1.0313    0.0000 N   0  0  0  0  0  0  0  0  0  0  0  0
   -0.0000    1.4437    0.0000 C   0  0  0  0  0  0  0  0  0  0  0  0
   -0.0000    2.2687    0.0000 C   0  0  0  0  0  0  0  0  0  0  0  0
    0.7145    0.2062    0.0000 C   0  0  0  0  0  0  0  0  0  0  0  0
   -0.0000   -0.2062    0.0000 C   0  0  0  0  0  0  0  0  0  0  0  0
   -0.0000   -1.0313    0.0000 N   0  0  0  0  0  0  0  0  0  0  0  0
    0.7145   -1.4437    0.0000 C   0  0  0  0  0  0  0  0  0  0  0  0
    1.4289   -1.0313    0.0000 C   0  0  0  0  0  0  0  0  0  0  0  0
    2.1434   -1.4437    0.0000 C   0  0  0  0  0  0  0  0  0  0  0  0
    2.1434   -2.2687    0.0000 C   0  0  0  0  0  0  0  0  0  0  0  0
    1.4289   -2.6812    0.0000 C   0  0  0  0  0  0  0  0  0  0  0  0
    0.7145   -2.2687    0.0000 C   0  0  0  0  0  0  0  0  0  0  0  0
   -0.0000   -2.6812    0.0000 S   0  0  0  0  0  0  0  0  0  0  0  0
   -0.7145   -2.2687    0.0000 C   0  0  0  0  0  0  0  0  0  0  0  0
   -1.4289   -2.6812    0.0000 C   0  0  0  0  0  0  0  0  0  0  0  0
   -2.1434   -2.2687    0.0000 C   0  0  0  0  0  0  0  0  0  0  0  0
   -2.1434   -1.4437    0.0000 C   0  0  0  0  0  0  0  0  0  0  0  0
   -1.4289   -1.0313    0.0000 C   0  0  0  0  0  0  0  0  0  0  0  0
   -0.7145   -1.4437    0.0000 C   0  0  0  0  0  0  0  0  0  0  0  0
  1  2  1  0      
  2  3  1  0      
  3  4  1  0      
  4  5  1  0      
  5  6  1  0      
  1  6  1  0      
  4  7  1  0      
  7  8  1  0      
  8  9  1  0      
  9 10  1  0      
 10 11  1  0      
 11 12  2  0      
 12 13  1  0      
 13 14  2  0      
 14 15  1  0      
 10 15  2  0      
 15 16  1  0      
 16 17  1  0      
 17 18  1  0      
 18 19  2  0      
 19 20  1  0      
 20 21  2  0      
 21 22  1  0      
 17 22  2  0      
  9 22  1  0      
M  END

>  <RackCode>
HYCPK72334

>  <Cat. No.>
HY-149213

>  <Product Name>
LSD1-IN-24

>  <ROW>
I

>  <COLUMN>
9

>  <CAS No.>
4734-59-2

>  <MWt>
312.43

>  <Target>
Histone Demethylase; PD-1/PD-L1

>  <Saltdate>


>  <Smiles>
N1(CCN2C3=C(SC4=C2C=CC=C4)C=CC=C3)CCOCC1

>  <Solvent>
DMSO Solution

>  <Batch No.>
322738

>  <Quantity>
10mM  * 50uL

>  <Pathway>
Epigenetics; Immunology/Inflammation

>  <Synonyms>


>  <Formula>
C18H20N2OS

>  <Research_Area>
Cancer

>  <Clinical_Information>
No Development Reported

>  <SUPPLIER>
MedChemExpress

$$$$
Untitled Document
  ChemDraw12131713372D

 27 28  0  0  0  0  0  0  0  0999 V2000
   -1.0717   -1.2375    0.0000 C   0  0  0  0  0  0  0  0  0  0  0  0
   -1.7862   -1.6500    0.0000 C   0  0  0  0  0  0  0  0  0  0  0  0
   -2.5006   -1.2375    0.0000 C   0  0  0  0  0  0  0  0  0  0  0  0
   -2.5006   -0.4125    0.0000 C   0  0  0  0  0  0  0  0  0  0  0  0
   -1.0717   -0.4125    0.0000 O   0  0  0  0  0  0  0  0  0  0  0  0
   -0.3572   -1.6500    0.0000 O   0  0  0  0  0  0  0  0  0  0  0  0
   -3.2151   -1.6500    0.0000 C   0  0  0  0  0  0  0  0  0  0  0  0
    0.3572   -1.2375    0.0000 C   0  0  0  0  0  0  0  0  0  0  0  0
    1.0717   -1.6500    0.0000 C   0  0  0  0  0  0  0  0  0  0  0  0
    1.7862   -1.2375    0.0000 C   0  0  0  0  0  0  0  0  0  0  0  0
    2.5006   -1.6500    0.0000 C   0  0  0  0  0  0  0  0  0  0  0  0
    2.5006   -2.4750    0.0000 C   0  0  0  0  0  0  0  0  0  0  0  0
    3.2151   -1.2375    0.0000 C   0  0  0  0  0  0  0  0  0  0  0  0
    1.0717   -0.0000    0.0000 C   0  0  0  0  0  0  0  0  0  0  0  0
    0.3572   -0.4125    0.0000 C   0  0  0  0  0  0  0  0  0  0  0  0
   -0.3572   -0.0000    0.0000 C   0  0  0  0  0  0  0  0  0  0  0  0
   -0.3572    0.8250    0.0000 C   0  0  0  0  0  0  0  0  0  0  0  0
    0.3572    1.2375    0.0000 C   0  0  0  0  0  0  0  0  0  0  0  0
    0.3572    2.0625    0.0000 C   0  0  0  0  0  0  0  0  0  0  0  0
    1.0717    2.4750    0.0000 C   0  0  0  0  0  0  0  0  0  0  0  0
    1.7862    2.0625    0.0000 C   0  0  0  0  0  0  0  0  0  0  0  0
    1.7862    1.2375    0.0000 C   0  0  0  0  0  0  0  0  0  0  0  0
    1.0717    0.8250    0.0000 C   0  0  0  0  0  0  0  0  0  0  0  0
   -1.0717    1.2375    0.0000 O   0  0  0  0  0  0  0  0  0  0  0  0
    1.7862   -0.4125    0.0000 O   0  0  0  0  0  0  0  0  0  0  0  0
    2.5006    0.8250    0.0000 O   0  0  0  0  0  0  0  0  0  0  0  0
   -0.3572    2.4750    0.0000 O   0  0  0  0  0  0  0  0  0  0  0  0
  1  2  1  0      
  2  3  2  0      
  3  4  1  0      
  1  5  2  0      
  1  6  1  0      
  3  7  1  0      
  8  9  1  0      
  9 10  1  0      
 10 11  2  0      
 11 12  1  0      
 11 13  1  0      
 14 15  1  0      
 15 16  2  0      
 16 17  1  0      
 17 18  1  0      
 18 19  1  0      
 19 20  2  0      
 20 21  1  0      
 21 22  2  0      
 22 23  1  0      
 14 23  1  0      
 18 23  2  0      
 17 24  2  0      
 14 25  2  0      
 22 26  1  0      
 19 27  1  0      
  8 15  1  0      
  6  8  1  0      
M  END

>  <RackCode>
HYCPK72334

>  <Cat. No.>
HY-N5112

>  <Product Name>
(Rac)-Arnebin 1

>  <ROW>
J

>  <COLUMN>
9

>  <CAS No.>
5162-01-6

>  <MWt>
370.40

>  <Target>
HIF/HIF Prolyl-Hydroxylase

>  <Saltdate>


>  <Smiles>
C/C(C)=C\C(OC(C(C1=O)=CC(C2=C1C(O)=CC=C2O)=O)C/C=C(C)\C)=O

>  <Solvent>
DMSO Solution

>  <Batch No.>
248969

>  <Quantity>
10mM  * 50uL

>  <Pathway>
Metabolic Enzyme/Protease

>  <Synonyms>
(Rac)-¦Â,¦Â-Dimethylacrylalkannin; (Rac)-¦Â,¦Â-?Dimethylacrylshikonin

>  <Formula>
C21H22O6

>  <Research_Area>
Others; Cancer

>  <Clinical_Information>
No Development Reported

>  <SUPPLIER>
MedChemExpress

$$$$
Untitled Document
  ChemDraw11131808462D

 24 26  0  0  0  0  0  0  0  0999 V2000
    0.6442    0.9085    0.0000 C   0  0  0  0  0  0  0  0  0  0  0  0
    1.3587    0.4960    0.0000 C   0  0  0  0  0  0  0  0  0  0  0  0
    1.3587   -0.3290    0.0000 C   0  0  0  0  0  0  0  0  0  0  0  0
    0.6442   -0.7415    0.0000 C   0  0  0  0  0  0  0  0  0  0  0  0
   -0.0702   -0.3290    0.0000 C   0  0  0  0  0  0  0  0  0  0  0  0
   -0.0702    0.4960    0.0000 N   0  0  0  0  0  0  0  0  0  0  0  0
    2.0732    0.9085    0.0000 C   0  0  0  0  0  0  0  0  0  0  0  0
    2.0732    1.7335    0.0000 O   0  0  0  0  0  0  0  0  0  0  0  0
    2.7877    0.4960    0.0000 O   0  0  0  0  0  0  0  0  0  0  0  0
   -0.7847   -0.7415    0.0000 N   0  0  0  0  0  0  0  0  0  0  0  0
   -0.8709   -1.5620    0.0000 N   0  0  0  0  0  0  0  0  0  0  0  0
   -1.6779   -1.7335    0.0000 C   0  0  0  0  0  0  0  0  0  0  0  0
   -2.0904   -1.0190    0.0000 C   0  0  0  0  0  0  0  0  0  0  0  0
   -1.5384   -0.4059    0.0000 C   0  0  0  0  0  0  0  0  0  0  0  0
   -2.9109   -0.9328    0.0000 N   0  0  0  0  0  0  0  0  0  0  0  0
   -3.4629   -1.5459    0.0000 N   0  0  0  0  0  0  0  0  0  0  0  0
   -4.2166   -1.2103    0.0000 N   0  0  0  0  0  0  0  0  0  0  0  0
   -4.1304   -0.3899    0.0000 C   0  0  0  0  0  0  0  0  0  0  0  0
   -3.3234   -0.2183    0.0000 C   0  0  0  0  0  0  0  0  0  0  0  0
   -1.7099    0.4010    0.0000 O   0  0  0  0  0  0  0  0  0  0  0  0
    3.5021    0.9085    0.0000 C   0  0  0  0  0  0  0  0  0  0  0  0
    3.5021    1.7335    0.0000 C   0  0  0  0  0  0  0  0  0  0  0  0
    4.2166    1.3210    0.0000 C   0  0  0  0  0  0  0  0  0  0  0  0
    4.2166    0.4960    0.0000 C   0  0  0  0  0  0  0  0  0  0  0  0
  1  2  1  0      
  2  3  2  0      
  3  4  1  0      
  4  5  2  0      
  5  6  1  0      
  1  6  2  0      
  7  8  2  0      
  7  9  1  0      
  2  7  1  0      
 10 11  1  0      
 11 12  1  0      
 12 13  2  0      
 13 14  1  0      
 10 14  1  0      
 15 16  1  0      
 16 17  2  0      
 17 18  1  0      
 18 19  2  0      
 15 19  1  0      
 13 15  1  0      
 14 20  2  0      
  5 10  1  0      
 21 22  1  0      
 21 23  1  0      
 21 24  1  0      
  9 21  1  0      
M  END

>  <RackCode>
HYCPK72334

>  <Cat. No.>
HY-120110

>  <Product Name>
IOX4

>  <ROW>
K

>  <COLUMN>
9

>  <CAS No.>
1154097-71-8

>  <MWt>
328.33

>  <Target>
HIF/HIF Prolyl-Hydroxylase

>  <Saltdate>
Free Base

>  <Smiles>
O=C(C1=CC=C(N2NC=C(N3N=NC=C3)C2=O)N=C1)OC(C)(C)C

>  <Solvent>
DMSO Solution

>  <Batch No.>
118909

>  <Quantity>
10mM  * 50uL

>  <Pathway>
Metabolic Enzyme/Protease

>  <Synonyms>


>  <Formula>
C15H16N6O3

>  <Research_Area>
Inflammation/Immunology; Neurological Disease

>  <Clinical_Information>
No Development Reported

>  <SUPPLIER>
MedChemExpress

$$$$
Untitled Document
  ChemDraw08232419442D

 42 46  0  0  0  0  0  0  0  0999 V2000
   -1.7635   -2.3201    0.0000 O   0  0  0  0  0  0  0  0  0  0  0  0
   -1.7635   -1.4951    0.0000 C   0  0  0  0  0  0  0  0  0  0  0  0
   -2.4779   -1.0826    0.0000 C   0  0  0  0  0  0  0  0  0  0  0  0
   -2.5642   -0.2621    0.0000 C   0  0  0  0  0  0  0  0  0  0  0  0
   -3.3710   -0.0906    0.0000 S   0  0  0  0  0  0  0  0  0  0  0  0
   -3.7835   -0.8051    0.0000 C   0  0  0  0  0  0  0  0  0  0  0  0
   -4.6040   -0.8913    0.0000 N   0  0  0  0  0  0  0  0  0  0  0  0
   -4.9396   -1.6450    0.0000 C   0  0  0  0  0  0  0  0  0  0  0  0
   -5.7601   -1.7312    0.0000 C   0  0  0  0  0  0  0  0  0  0  0  0
   -6.0956   -2.4849    0.0000 C   0  0  0  0  0  0  0  0  0  0  0  0
   -5.6107   -3.1522    0.0000 C   0  0  0  0  0  0  0  0  0  0  0  0
   -5.9463   -3.9059    0.0000 Cl  0  0  0  0  0  0  0  0  0  0  0  0
   -4.7902   -3.0660    0.0000 C   0  0  0  0  0  0  0  0  0  0  0  0
   -4.4547   -2.3124    0.0000 C   0  0  0  0  0  0  0  0  0  0  0  0
   -3.2315   -1.4182    0.0000 N   0  0  0  0  0  0  0  0  0  0  0  0
   -1.0490   -1.0826    0.0000 N   0  0  0  0  0  0  0  0  0  0  0  0
   -0.3345   -1.4951    0.0000 C   0  0  0  0  0  0  0  0  0  0  0  0
    0.3799   -1.0826    0.0000 C   0  0  0  0  0  0  0  0  0  0  0  0
    1.0944   -1.4951    0.0000 C   0  0  0  0  0  0  0  0  0  0  0  0
    1.8089   -1.0826    0.0000 C   0  0  0  0  0  0  0  0  0  0  0  0
    2.5234   -1.4951    0.0000 C   0  0  0  0  0  0  0  0  0  0  0  0
    3.2377   -1.0826    0.0000 C   0  0  0  0  0  0  0  0  0  0  0  0
    3.9522   -1.4951    0.0000 N   0  0  0  0  0  0  0  0  0  0  0  0
    4.6667   -1.0826    0.0000 C   0  0  0  0  0  0  0  0  0  0  0  0
    5.3811   -1.4951    0.0000 C   0  0  0  0  0  0  0  0  0  0  0  0
    6.0956   -1.0826    0.0000 C   0  0  0  0  0  0  0  0  0  0  0  0
    6.0956   -0.2576    0.0000 C   0  0  0  0  0  0  0  0  0  0  0  0
    5.3811    0.1549    0.0000 C   0  0  0  0  0  0  0  0  0  0  0  0
    4.6667   -0.2576    0.0000 C   0  0  0  0  0  0  0  0  0  0  0  0
    4.0536    0.2944    0.0000 C   0  0  0  0  0  0  0  0  0  0  0  0
    4.3891    1.0481    0.0000 N   0  0  0  0  0  0  0  0  0  0  0  0
    3.9766    1.7626    0.0000 C   0  0  0  0  0  0  0  0  0  0  0  0
    3.1516    1.7626    0.0000 C   0  0  0  0  0  0  0  0  0  0  0  0
    2.7391    2.4771    0.0000 C   0  0  0  0  0  0  0  0  0  0  0  0
    3.1516    3.1914    0.0000 C   0  0  0  0  0  0  0  0  0  0  0  0
    3.9766    3.1914    0.0000 N   0  0  0  0  0  0  0  0  0  0  0  0
    4.3891    2.4771    0.0000 C   0  0  0  0  0  0  0  0  0  0  0  0
    5.2141    2.4771    0.0000 O   0  0  0  0  0  0  0  0  0  0  0  0
    2.7391    3.9059    0.0000 O   0  0  0  0  0  0  0  0  0  0  0  0
    5.2096    0.9619    0.0000 C   0  0  0  0  0  0  0  0  0  0  0  0
    5.7617    1.5750    0.0000 O   0  0  0  0  0  0  0  0  0  0  0  0
    3.2466    0.1229    0.0000 O   0  0  0  0  0  0  0  0  0  0  0  0
  1  2  2  0      
  2  3  1  0      
  3  4  2  0      
  4  5  1  0      
  5  6  1  0      
  6  7  1  0      
  7  8  1  0      
  8  9  2  0      
  9 10  1  0      
 10 11  2  0      
 11 12  1  0      
 11 13  1  0      
 13 14  2  0      
  8 14  1  0      
  6 15  2  0      
  3 15  1  0      
  2 16  1  0      
 16 17  1  0      
 17 18  1  0      
 18 19  1  0      
 19 20  1  0      
 20 21  1  0      
 21 22  1  0      
 22 23  1  0      
 23 24  1  0      
 24 25  2  0      
 25 26  1  0      
 26 27  2  0      
 27 28  1  0      
 28 29  2  0      
 24 29  1  0      
 29 30  1  0      
 30 31  1  0      
 31 32  1  0      
 32 33  1  0      
 33 34  1  0      
 34 35  1  0      
 35 36  1  0      
 36 37  1  0      
 32 37  1  0      
 37 38  2  0      
 35 39  2  0      
 31 40  1  0      
 28 40  1  0      
 40 41  2  0      
 30 42  2  0      
M  END

>  <RackCode>
HYCPK72334

>  <Cat. No.>
HY-141881

>  <Product Name>
PROTAC-O4I2

>  <ROW>
L

>  <COLUMN>
9

>  <CAS No.>
2785323-62-6

>  <MWt>
609.10

>  <Target>
Apoptosis; PROTACs; SF3B1

>  <Saltdate>


>  <Smiles>
O=C(NCCCCCCNC1=CC=CC2=C1C(N(C2=O)C3CCC(NC3=O)=O)=O)C4=CSC(NC5=CC=C(C=C5)Cl)=N4

>  <Solvent>
DMSO Solution

>  <Batch No.>
151302

>  <Quantity>
10mM  * 50uL

>  <Pathway>
Apoptosis; Epigenetics; PROTAC

>  <Synonyms>


>  <Formula>
C29H29ClN6O5S

>  <Research_Area>
Cancer

>  <Clinical_Information>
No Development Reported

>  <SUPPLIER>
MedChemExpress

$$$$
Untitled Document
  ChemDraw10121709592D

 30 31  0  0  0  0  0  0  0  0999 V2000
    0.7832   -0.2019    0.0000 N   0  0  0  0  0  0  0  0  0  0  0  0
    0.0694    0.2102    0.0000 S   0  0  0  0  0  0  0  0  0  0  0  0
   -0.3435    0.9214    0.0000 O   0  0  0  0  0  0  0  0  0  0  0  0
    0.4807    0.9214    0.0000 O   0  0  0  0  0  0  0  0  0  0  0  0
   -0.6443   -0.2019    0.0000 C   0  0  0  0  0  0  0  0  0  0  0  0
   -0.6443   -1.0278    0.0000 C   0  0  0  0  0  0  0  0  0  0  0  0
   -1.3580   -1.4416    0.0000 C   0  0  0  0  0  0  0  0  0  0  0  0
   -2.0717   -1.0278    0.0000 C   0  0  0  0  0  0  0  0  0  0  0  0
   -2.0717   -0.2019    0.0000 C   0  0  0  0  0  0  0  0  0  0  0  0
   -1.3580    0.2102    0.0000 C   0  0  0  0  0  0  0  0  0  0  0  0
   -2.7855   -1.4416    0.0000 O   0  0  0  0  0  0  0  0  0  0  0  0
   -3.5013   -1.0278    0.0000 C   0  0  0  0  0  0  0  0  0  0  0  0
   -4.2150   -1.4416    0.0000 C   0  0  0  0  0  0  0  0  0  0  0  0
   -4.9287   -1.0278    0.0000 C   0  0  0  0  0  0  0  0  0  0  0  0
   -5.6424   -1.4416    0.0000 N   0  0  0  0  0  0  0  0  0  0  0  0
   -6.4932   -0.9430    0.0000 C   0  0  0  0  0  0  0  0  0  0  0  0
   -5.6424   -2.2676    0.0000 C   0  0  0  0  0  0  0  0  0  0  0  0
    1.4971    0.2102    0.0000 C   0  0  0  0  0  0  0  0  0  0  0  0
    2.2088   -0.2019    0.0000 C   0  0  0  0  0  0  0  0  0  0  0  0
    2.9245    0.2102    0.0000 C   0  0  0  0  0  0  0  0  0  0  0  0
    2.9245    1.0362    0.0000 C   0  0  0  0  0  0  0  0  0  0  0  0
    2.2088    1.4416    0.0000 C   0  0  0  0  0  0  0  0  0  0  0  0
    1.4971    1.0362    0.0000 N   0  0  0  0  0  0  0  0  0  0  0  0
    3.6383    1.4416    0.0000 C   0  0  0  0  0  0  0  0  0  0  0  0
    4.3520    1.0362    0.0000 C   0  0  0  0  0  0  0  0  0  0  0  0
    5.0657    1.4416    0.0000 S   0  0  0  0  0  0  0  0  0  0  0  0
    5.7794    1.0362    0.0000 C   0  0  0  0  0  0  0  0  0  0  0  0
    6.4932    1.4416    0.0000 C   0  0  0  0  0  0  0  0  0  0  0  0
    5.7794    0.2102    0.0000 O   0  0  0  0  0  0  0  0  0  0  0  0
    3.6383    2.2676    0.0000 O   0  0  0  0  0  0  0  0  0  0  0  0
  1  2  1  0      
  1 18  1  0      
  2  3  2  0      
  2  4  2  0      
  2  5  1  0      
  5  6  2  0      
  5 10  1  0      
  6  7  1  0      
  7  8  2  0      
  9  8  1  0      
  8 11  1  0      
 10  9  2  0      
 11 12  1  0      
 12 13  1  0      
 13 14  1  0      
 14 15  1  0      
 15 16  1  0      
 15 17  1  0      
 18 19  2  0      
 18 23  1  0      
 19 20  1  0      
 20 21  2  0      
 22 21  1  0      
 21 24  1  0      
 23 22  2  0      
 24 25  1  0      
 24 30  2  0      
 25 26  1  0      
 26 27  1  0      
 27 28  1  0      
 27 29  2  0      
M  END

>  <RackCode>
HYCPK72334

>  <Cat. No.>
HY-107549

>  <Product Name>
KD 5170

>  <ROW>
M

>  <COLUMN>
9

>  <CAS No.>
940943-37-3

>  <MWt>
451.56

>  <Target>
HDAC

>  <Saltdate>


>  <Smiles>
O=S(NC1=CC=C(C(CSC(C)=O)=O)C=N1)(C2=CC=C(OCCCN(C)C)C=C2)=O

>  <Solvent>
DMSO Solution

>  <Batch No.>
381103

>  <Quantity>
10mM  * 50uL

>  <Pathway>
Cell Cycle/DNA Damage; Epigenetics

>  <Synonyms>


>  <Formula>
C20H25N3O5S2

>  <Research_Area>
Cancer

>  <Clinical_Information>
No Development Reported

>  <SUPPLIER>
MedChemExpress

$$$$
Untitled Document
  ChemDraw05242210282D

 22 24  0  0  0  0  0  0  0  0999 V2000
    1.4289   -1.4437    0.0000 O   0  0  0  0  0  0  0  0  0  0  0  0
    0.7145   -1.0313    0.0000 C   0  0  0  0  0  0  0  0  0  0  0  0
    0.0000   -1.4437    0.0000 C   0  0  0  0  0  0  0  0  0  0  0  0
   -0.7145   -1.0313    0.0000 C   0  0  0  0  0  0  0  0  0  0  0  0
   -1.4289   -1.4437    0.0000 C   0  0  0  0  0  0  0  0  0  0  0  0
   -2.1435   -1.0313    0.0000 N   0  0  0  0  0  0  0  0  0  0  0  0
   -2.8580   -1.4437    0.0000 C   0  0  0  0  0  0  0  0  0  0  0  0
   -3.5725   -1.0313    0.0000 C   0  0  0  0  0  0  0  0  0  0  0  0
   -3.5725   -0.2062    0.0000 C   0  0  0  0  0  0  0  0  0  0  0  0
   -2.8580    0.2062    0.0000 C   0  0  0  0  0  0  0  0  0  0  0  0
   -2.1435   -0.2062    0.0000 C   0  0  0  0  0  0  0  0  0  0  0  0
    2.8580    0.2062    0.0000 C   0  0  0  0  0  0  0  0  0  0  0  0
    3.5725   -0.2062    0.0000 C   0  0  0  0  0  0  0  0  0  0  0  0
    3.5725   -1.0313    0.0000 C   0  0  0  0  0  0  0  0  0  0  0  0
    2.8580   -1.4437    0.0000 C   0  0  0  0  0  0  0  0  0  0  0  0
    2.1435   -1.0313    0.0000 C   0  0  0  0  0  0  0  0  0  0  0  0
    2.1435   -0.2062    0.0000 C   0  0  0  0  0  0  0  0  0  0  0  0
    1.4289    0.2062    0.0000 C   0  0  0  0  0  0  0  0  0  0  0  0
    1.4289    1.0313    0.0000 C   0  0  0  0  0  0  0  0  0  0  0  0
    2.1435    1.4437    0.0000 N   0  0  0  0  0  0  0  0  0  0  0  0
    2.8580    1.0313    0.0000 C   0  0  0  0  0  0  0  0  0  0  0  0
    3.5725    1.4437    0.0000 O   0  0  0  0  0  0  0  0  0  0  0  0
 17 12  2  0      
 21 12  1  0      
 13 12  1  0      
 14 13  2  0      
 15 14  1  0      
 16 15  2  0      
 17 16  1  0      
 18 17  1  0      
 19 18  1  0      
 20 19  1  0      
 21 20  1  0      
 22 21  2  0      
 16  1  1  0      
  1  2  1  0      
  2  3  1  0      
  3  4  1  0      
  4  5  1  0      
  5  6  1  0      
  6  7  1  0      
  7  8  1  0      
  8  9  1  0      
  9 10  1  0      
 10 11  1  0      
  6 11  1  0      
M  END

>  <RackCode>
HYCPK72334

>  <Cat. No.>
HY-114869

>  <Product Name>
DPQ

>  <ROW>
N

>  <COLUMN>
9

>  <CAS No.>
129075-73-6

>  <MWt>
302.41

>  <Target>
PARP

>  <Saltdate>


>  <Smiles>
O=C1C2=C(CCN1)C(OCCCCN3CCCCC3)=CC=C2

>  <Solvent>
DMSO Solution

>  <Batch No.>
250443

>  <Quantity>
10mM  * 50uL

>  <Pathway>
Cell Cycle/DNA Damage; Epigenetics

>  <Synonyms>


>  <Formula>
C18H26N2O2

>  <Research_Area>
Neurological Disease

>  <Clinical_Information>
No Development Reported

>  <SUPPLIER>
MedChemExpress

$$$$
Untitled Document
  ChemDraw03071614522D

 27 30  0  0  0  0  0  0  0  0999 V2000
    0.4006   -0.6993    0.0000 C   0  0  0  0  0  0  0  0  0  0  0  0
   -0.1023   -1.3533    0.0000 C   0  0  0  0  0  0  0  0  0  0  0  0
    0.2127   -2.1159    0.0000 C   0  0  0  0  0  0  0  0  0  0  0  0
    1.0306   -2.2243    0.0000 C   0  0  0  0  0  0  0  0  0  0  0  0
    1.5334   -1.5703    0.0000 C   0  0  0  0  0  0  0  0  0  0  0  0
    1.2184   -0.8078    0.0000 C   0  0  0  0  0  0  0  0  0  0  0  0
    1.3456   -2.9868    0.0000 Cl  0  0  0  0  0  0  0  0  0  0  0  0
    0.0856    0.0632    0.0000 C   0  0  0  0  0  0  0  0  0  0  0  0
   -0.7322    0.1717    0.0000 C   0  0  0  0  0  0  0  0  0  0  0  0
    0.6804    0.6350    0.0000 N   0  0  0  0  0  0  0  0  0  0  0  0
   -1.1573    0.8788    0.0000 C   0  0  0  0  0  0  0  0  0  0  0  0
   -1.9611    0.6929    0.0000 S   0  0  0  0  0  0  0  0  0  0  0  0
   -2.0329   -0.1289    0.0000 C   0  0  0  0  0  0  0  0  0  0  0  0
   -1.2733   -0.4511    0.0000 C   0  0  0  0  0  0  0  0  0  0  0  0
   -2.7398   -0.5540    0.0000 C   0  0  0  0  0  0  0  0  0  0  0  0
   -1.0875   -1.2549    0.0000 C   0  0  0  0  0  0  0  0  0  0  0  0
   -0.8696    1.6519    0.0000 N   0  0  0  0  0  0  0  0  0  0  0  0
   -0.0857    1.9090    0.0000 C   0  0  0  0  0  0  0  0  0  0  0  0
    0.6041    1.4565    0.0000 C   0  0  0  0  0  0  0  0  0  0  0  0
    1.3112    1.8815    0.0000 C   0  0  0  0  0  0  0  0  0  0  0  0
    2.0329    1.4819    0.0000 C   0  0  0  0  0  0  0  0  0  0  0  0
   -0.0880    2.7341    0.0000 N   0  0  0  0  0  0  0  0  0  0  0  0
   -0.8733    2.9868    0.0000 N   0  0  0  0  0  0  0  0  0  0  0  0
   -1.3564    2.3181    0.0000 C   0  0  0  0  0  0  0  0  0  0  0  0
   -2.1814    2.3158    0.0000 C   0  0  0  0  0  0  0  0  0  0  0  0
    2.7398    1.9069    0.0000 O   0  0  0  0  0  0  0  0  0  0  0  0
    2.0474    0.6570    0.0000 N   0  0  0  0  0  0  0  0  0  0  0  0
  1  2  2  0      
  2  3  1  0      
  3  4  2  0      
  4  5  1  0      
  5  6  2  0      
  6  1  1  0      
  4  7  1  0      
  1  8  1  0      
  8  9  1  0      
  8 10  2  0      
  9 11  2  0      
 11 12  1  0      
 12 13  1  0      
 13 14  2  0      
 14  9  1  0      
 13 15  1  0      
 14 16  1  0      
 11 17  1  0      
 17 18  1  0      
 19 20  1  6      
 20 21  1  0      
 18 22  2  0      
 18 19  1  0      
 19 10  1  0      
 22 23  1  0      
 23 24  2  0      
 24 17  1  0      
 24 25  1  0      
 21 26  2  0      
 21 27  1  0      
M  END

>  <RackCode>
HYCPK72334

>  <Cat. No.>
HY-15846

>  <Product Name>
CPI-203

>  <ROW>
O

>  <COLUMN>
9

>  <CAS No.>
1446144-04-2

>  <MWt>
399.90

>  <Target>
Apoptosis; Epigenetic Reader Domain

>  <Saltdate>
Free Base

>  <Smiles>
ClC1=CC=C(C(C2=C(N3C4=NN=C3C)SC(C)=C2C)=N[C@H]4CC(N)=O)C=C1

>  <Solvent>
DMSO Solution

>  <Batch No.>
11287

>  <Quantity>
10mM  * 50uL

>  <Pathway>
Apoptosis; Epigenetics

>  <Synonyms>


>  <Formula>
C19H18ClN5OS

>  <Research_Area>
Cancer

>  <Clinical_Information>
No Development Reported

>  <SUPPLIER>
MedChemExpress

$$$$
Untitled Document
  ChemDraw07222014452D

 34 36  0  0  0  0  0  0  0  0999 V2000
    1.0717   -0.2062    0.0000 C   0  0  0  0  0  0  0  0  0  0  0  0
    0.3572   -0.6187    0.0000 C   0  0  0  0  0  0  0  0  0  0  0  0
   -0.3572   -0.2062    0.0000 C   0  0  0  0  0  0  0  0  0  0  0  0
   -1.0717   -0.6187    0.0000 C   0  0  0  0  0  0  0  0  0  0  0  0
   -1.0717   -1.4437    0.0000 C   0  0  0  0  0  0  0  0  0  0  0  0
   -0.3572   -1.8563    0.0000 C   0  0  0  0  0  0  0  0  0  0  0  0
    0.3572   -1.4437    0.0000 C   0  0  0  0  0  0  0  0  0  0  0  0
    1.0717    0.6187    0.0000 O   0  0  0  0  0  0  0  0  0  0  0  0
    1.7862   -0.6187    0.0000 O   0  0  0  0  0  0  0  0  0  0  0  0
   -1.7862   -0.2062    0.0000 N   0  0  0  0  0  0  0  0  0  0  0  0
   -2.5006   -0.6187    0.0000 C   0  0  0  0  0  0  0  0  0  0  0  0
   -3.2151   -0.2062    0.0000 C   0  0  0  0  0  0  0  0  0  0  0  0
   -3.2151    0.6187    0.0000 C   0  0  0  0  0  0  0  0  0  0  0  0
   -3.9296    1.0313    0.0000 C   0  0  0  0  0  0  0  0  0  0  0  0
   -4.6441    0.6187    0.0000 C   0  0  0  0  0  0  0  0  0  0  0  0
   -4.6441   -0.2062    0.0000 C   0  0  0  0  0  0  0  0  0  0  0  0
   -3.9296   -0.6187    0.0000 C   0  0  0  0  0  0  0  0  0  0  0  0
   -2.5006   -1.4437    0.0000 O   0  0  0  0  0  0  0  0  0  0  0  0
   -5.3585    1.0313    0.0000 N   0  3  0  0  0  0  0  0  0  0  0  0
   -5.3585    1.8563    0.0000 O   0  0  0  0  0  0  0  0  0  0  0  0
   -6.0730    0.6187    0.0000 O   0  5  0  0  0  0  0  0  0  0  0  0
   -2.5006    1.0313    0.0000 N   0  3  0  0  0  0  0  0  0  0  0  0
   -2.5006    1.8563    0.0000 O   0  0  0  0  0  0  0  0  0  0  0  0
   -1.7862    0.6187    0.0000 O   0  5  0  0  0  0  0  0  0  0  0  0
    2.5006   -0.2062    0.0000 C   0  0  0  0  0  0  0  0  0  0  0  0
    3.2151   -0.6187    0.0000 C   0  0  0  0  0  0  0  0  0  0  0  0
    3.2151   -1.4437    0.0000 O   0  0  0  0  0  0  0  0  0  0  0  0
    3.9296   -0.2062    0.0000 C   0  0  0  0  0  0  0  0  0  0  0  0
    3.9296    0.6187    0.0000 C   0  0  0  0  0  0  0  0  0  0  0  0
    4.6441    1.0313    0.0000 C   0  0  0  0  0  0  0  0  0  0  0  0
    5.3585    0.6187    0.0000 C   0  0  0  0  0  0  0  0  0  0  0  0
    5.3585   -0.2062    0.0000 C   0  0  0  0  0  0  0  0  0  0  0  0
    4.6441   -0.6187    0.0000 C   0  0  0  0  0  0  0  0  0  0  0  0
    6.0730    1.0313    0.0000 C   0  0  0  0  0  0  0  0  0  0  0  0
  1  2  1  0      
  2  3  1  0      
  3  4  2  0      
  4  5  1  0      
  5  6  2  0      
  6  7  1  0      
  2  7  2  0      
  1  8  2  0      
  1  9  1  0      
 11 12  1  0      
 12 13  1  0      
 13 14  2  0      
 14 15  1  0      
 15 16  2  0      
 16 17  1  0      
 12 17  2  0      
 11 18  2  0      
 19 20  2  0      
 19 21  1  0      
 15 19  1  0      
 22 23  2  0      
 22 24  1  0      
 13 22  1  0      
 10 11  1  0      
  4 10  1  0      
 25 26  1  0      
 26 27  2  0      
 28 29  1  0      
 29 30  2  0      
 30 31  1  0      
 31 32  2  0      
 32 33  1  0      
 28 33  2  0      
 31 34  1  0      
 26 28  1  0      
  9 25  1  0      
M  CHG  4  19   1  21  -1  22   1  24  -1
M  END

>  <RackCode>
HYCPK72334

>  <Cat. No.>
HY-15672

>  <Product Name>
FM19G11

>  <ROW>
P

>  <COLUMN>
9

>  <CAS No.>
329932-55-0

>  <MWt>
463.40

>  <Target>
HIF/HIF Prolyl-Hydroxylase

>  <Saltdate>


>  <Smiles>
O=C(OCC(C1=CC=C(C)C=C1)=O)C2=CC=CC(NC(C3=CC=C([N+]([O-])=O)C=C3[N+]([O-])=O)=O)=C2

>  <Solvent>
DMSO Solution

>  <Batch No.>
212814

>  <Quantity>
10mM  * 50uL

>  <Pathway>
Metabolic Enzyme/Protease

>  <Synonyms>


>  <Formula>
C23H17N3O8

>  <Research_Area>
Cancer; Neurological Disease

>  <Clinical_Information>
No Development Reported

>  <SUPPLIER>
MedChemExpress

$$$$
Untitled Document
  ChemDraw06161610312D

 24 26  0  0  0  0  0  0  0  0999 V2000
   -2.1434   -0.8250    0.0000 N   0  0  0  0  0  0  0  0  0  0  0  0
   -1.4289   -0.4125    0.0000 C   0  0  0  0  0  0  0  0  0  0  0  0
   -1.4289    0.4125    0.0000 N   0  0  0  0  0  0  0  0  0  0  0  0
   -2.1434    0.8250    0.0000 C   0  0  0  0  0  0  0  0  0  0  0  0
   -2.8579    0.4125    0.0000 C   0  0  0  0  0  0  0  0  0  0  0  0
   -3.5724    0.8250    0.0000 C   0  0  0  0  0  0  0  0  0  0  0  0
   -4.2868    0.4125    0.0000 C   0  0  0  0  0  0  0  0  0  0  0  0
   -4.2868   -0.4125    0.0000 C   0  0  0  0  0  0  0  0  0  0  0  0
   -3.5724   -0.8250    0.0000 C   0  0  0  0  0  0  0  0  0  0  0  0
   -2.8579   -0.4125    0.0000 C   0  0  0  0  0  0  0  0  0  0  0  0
    0.7145   -0.8250    0.0000 C   0  0  0  0  0  0  0  0  0  0  0  0
    0.0000   -0.4125    0.0000 C   0  0  0  0  0  0  0  0  0  0  0  0
   -0.7145   -0.8250    0.0000 C   0  0  0  0  0  0  0  0  0  0  0  0
    0.7145   -1.6500    0.0000 O   0  0  0  0  0  0  0  0  0  0  0  0
    1.4289   -0.4125    0.0000 N   0  0  0  0  0  0  0  0  0  0  0  0
    2.1434   -0.8250    0.0000 C   0  0  0  0  0  0  0  0  0  0  0  0
    2.1434   -1.6500    0.0000 C   0  0  0  0  0  0  0  0  0  0  0  0
    2.8579   -0.4125    0.0000 C   0  0  0  0  0  0  0  0  0  0  0  0
    2.8579    0.4125    0.0000 C   0  0  0  0  0  0  0  0  0  0  0  0
    3.5724    0.8250    0.0000 C   0  0  0  0  0  0  0  0  0  0  0  0
    4.2868    0.4125    0.0000 C   0  0  0  0  0  0  0  0  0  0  0  0
    4.2868   -0.4125    0.0000 C   0  0  0  0  0  0  0  0  0  0  0  0
    3.5724   -0.8250    0.0000 C   0  0  0  0  0  0  0  0  0  0  0  0
   -2.1434    1.6500    0.0000 O   0  0  0  0  0  0  0  0  0  0  0  0
  1  2  1  0      
  2  3  2  0      
  3  4  1  0      
  4  5  1  0      
  5  6  1  0      
  6  7  2  0      
  7  8  1  0      
  8  9  2  0      
  9 10  1  0      
  1 10  1  0      
  5 10  2  0      
 11 12  1  0      
 12 13  1  0      
 11 14  2  0      
 11 15  1  0      
  2 13  1  0      
 16 17  1  6      
 18 19  1  0      
 19 20  2  0      
 20 21  1  0      
 21 22  2  0      
 22 23  1  0      
 18 23  2  0      
 16 18  1  0      
 15 16  1  0      
  4 24  2  0      
M  END

>  <RackCode>
HYCPK72334

>  <Cat. No.>
HY-100225

>  <Product Name>
ME0328

>  <ROW>
A

>  <COLUMN>
10

>  <CAS No.>
1445251-22-8

>  <MWt>
321.37

>  <Target>
PARP

>  <Saltdate>
Free Base

>  <Smiles>
O=C(N[C@H](C1=CC=CC=C1)C)CCC(NC2=C3C=CC=C2)=NC3=O

>  <Solvent>
DMSO Solution

>  <Batch No.>
32802

>  <Quantity>
10mM  * 50uL

>  <Pathway>
Cell Cycle/DNA Damage; Epigenetics

>  <Synonyms>


>  <Formula>
C19H19N3O2

>  <Research_Area>
Cancer

>  <Clinical_Information>
No Development Reported

>  <SUPPLIER>
MedChemExpress

$$$$
Untitled Document
  ChemDraw10311609332D

  9  9  0  0  0  0  0  0  0  0999 V2000
   -1.4289    0.0000    0.0000 C   0  0  0  0  0  0  0  0  0  0  0  0
   -1.4289   -0.8250    0.0000 C   0  0  0  0  0  0  0  0  0  0  0  0
   -0.7145   -1.2375    0.0000 C   0  0  0  0  0  0  0  0  0  0  0  0
   -0.0000   -0.8250    0.0000 C   0  0  0  0  0  0  0  0  0  0  0  0
   -0.0000    0.0000    0.0000 C   0  0  0  0  0  0  0  0  0  0  0  0
   -0.7145    0.4125    0.0000 C   0  0  0  0  0  0  0  0  0  0  0  0
    0.7145    0.4125    0.0000 C   0  0  0  0  0  0  0  0  0  0  0  0
    1.4289    0.0000    0.0000 N   0  0  0  0  0  0  0  0  0  0  0  0
    0.7145    1.2375    0.0000 O   0  0  0  0  0  0  0  0  0  0  0  0
  1  2  2  0      
  2  3  1  0      
  3  4  2  0      
  4  5  1  0      
  5  6  2  0      
  6  1  1  0      
  5  7  1  0      
  7  8  1  0      
  7  9  2  0      
M  END

>  <RackCode>
HYCPK72334

>  <Cat. No.>
HY-Z0283

>  <Product Name>
Benzamide

>  <ROW>
B

>  <COLUMN>
10

>  <CAS No.>
55-21-0

>  <MWt>
121.14

>  <Target>
Endogenous Metabolite; PARP

>  <Saltdate>


>  <Smiles>
NC(C1=CC=CC=C1)=O

>  <Solvent>
DMSO Solution

>  <Batch No.>
14945

>  <Quantity>
10mM  * 50uL

>  <Pathway>
Cell Cycle/DNA Damage; Epigenetics; Metabolic Enzyme/Protease

>  <Synonyms>
Benzenecarboxamide; Phenylamide

>  <Formula>
C7H7NO

>  <Research_Area>
Others

>  <Clinical_Information>
No Development Reported

>  <SUPPLIER>
MedChemExpress

$$$$
Untitled Document
  ChemDraw01182315462D

 25 28  0  0  0  0  0  0  0  0999 V2000
    3.5241   -0.8510    0.0000 O   0  0  0  0  0  0  0  0  0  0  0  0
    3.1282   -0.1272    0.0000 S   0  0  0  0  0  0  0  0  0  0  0  0
    3.9530   -0.1463    0.0000 O   0  0  0  0  0  0  0  0  0  0  0  0
    2.4044   -0.5231    0.0000 C   0  0  0  0  0  0  0  0  0  0  0  0
    1.6997   -0.0942    0.0000 C   0  0  0  0  0  0  0  0  0  0  0  0
    1.7187    0.7306    0.0000 N   0  0  0  0  0  0  0  0  0  0  0  0
    1.0140    1.1595    0.0000 C   0  0  0  0  0  0  0  0  0  0  0  0
    0.2902    0.7636    0.0000 C   0  0  0  0  0  0  0  0  0  0  0  0
    0.2711   -0.0611    0.0000 C   0  0  0  0  0  0  0  0  0  0  0  0
   -0.4527   -0.4570    0.0000 C   0  0  0  0  0  0  0  0  0  0  0  0
   -1.1575   -0.0281    0.0000 C   0  0  0  0  0  0  0  0  0  0  0  0
   -1.1384    0.7967    0.0000 C   0  0  0  0  0  0  0  0  0  0  0  0
   -0.4146    1.1925    0.0000 C   0  0  0  0  0  0  0  0  0  0  0  0
   -1.8813   -0.4240    0.0000 C   0  0  0  0  0  0  0  0  0  0  0  0
   -1.9003   -1.2488    0.0000 C   0  0  0  0  0  0  0  0  0  0  0  0
   -2.6242   -1.6446    0.0000 C   0  0  0  0  0  0  0  0  0  0  0  0
   -3.3289   -1.2157    0.0000 C   0  0  0  0  0  0  0  0  0  0  0  0
   -3.3098   -0.3910    0.0000 C   0  0  0  0  0  0  0  0  0  0  0  0
   -3.9100    0.1751    0.0000 N   0  0  0  0  0  0  0  0  0  0  0  0
   -3.5571    0.9208    0.0000 C   0  0  0  0  0  0  0  0  0  0  0  0
   -2.7389    0.8156    0.0000 N   0  0  0  0  0  0  0  0  0  0  0  0
   -2.5860    0.0049    0.0000 N   0  0  0  0  0  0  0  0  0  0  0  0
   -3.9530    1.6446    0.0000 N   0  0  0  0  0  0  0  0  0  0  0  0
    2.4425    1.1265    0.0000 C   0  0  0  0  0  0  0  0  0  0  0  0
    3.1473    0.6976    0.0000 C   0  0  0  0  0  0  0  0  0  0  0  0
  1  2  2  0      
  2  3  2  0      
  2  4  1  0      
  4  5  1  0      
  5  6  1  0      
  6  7  1  0      
  7  8  1  0      
  8  9  1  0      
  9 10  2  0      
 10 11  1  0      
 11 12  2  0      
 12 13  1  0      
  8 13  2  0      
 11 14  1  0      
 14 15  2  0      
 15 16  1  0      
 16 17  2  0      
 17 18  1  0      
 18 19  2  0      
 19 20  1  0      
 20 21  2  0      
 21 22  1  0      
 18 22  1  0      
 14 22  1  0      
 20 23  1  0      
  6 24  1  0      
 24 25  1  0      
  2 25  1  0      
M  END

>  <RackCode>
HYCPK72334

>  <Cat. No.>
HY-W394903

>  <Product Name>
GS-829845

>  <ROW>
C

>  <COLUMN>
10

>  <CAS No.>
1257705-09-1

>  <MWt>
357.43

>  <Target>
Drug Metabolite; JAK

>  <Saltdate>


>  <Smiles>
O=S1(CCN(CC1)CC2=CC=C(C3=CC=CC4=NC(N)=NN43)C=C2)=O

>  <Solvent>
DMSO Solution

>  <Batch No.>
309121

>  <Quantity>
10mM  * 50uL

>  <Pathway>
Epigenetics; JAK/STAT Signaling; Metabolic Enzyme/Protease; Protein Tyrosine Kinase/RTK; Stem Cell/Wnt

>  <Synonyms>


>  <Formula>
C17H19N5O2S

>  <Research_Area>
Cancer

>  <Clinical_Information>
No Development Reported

>  <SUPPLIER>
MedChemExpress

$$$$
Untitled Document
  ChemDraw09292115102D

 27 31  0  0  0  0  0  0  0  0999 V2000
   -2.3825   -2.8930    0.0000 N   0  0  0  0  0  0  0  0  0  0  0  0
   -2.0469   -2.1394    0.0000 C   0  0  0  0  0  0  0  0  0  0  0  0
   -1.7114   -1.3857    0.0000 C   0  0  0  0  0  0  0  0  0  0  0  0
   -0.8909   -1.2994    0.0000 C   0  0  0  0  0  0  0  0  0  0  0  0
   -1.3758   -0.6320    0.0000 N   0  0  0  0  0  0  0  0  0  0  0  0
   -2.2008   -0.6320    0.0000 N   0  0  0  0  0  0  0  0  0  0  0  0
   -2.4558    0.1526    0.0000 C   0  0  0  0  0  0  0  0  0  0  0  0
   -1.7883    0.6375    0.0000 C   0  0  0  0  0  0  0  0  0  0  0  0
   -1.1209    0.1526    0.0000 C   0  0  0  0  0  0  0  0  0  0  0  0
   -1.7883    1.4625    0.0000 C   0  0  0  0  0  0  0  0  0  0  0  0
   -2.5028    1.8750    0.0000 N   0  0  0  0  0  0  0  0  0  0  0  0
   -2.5028    2.7000    0.0000 C   0  0  0  0  0  0  0  0  0  0  0  0
   -1.7883    3.1125    0.0000 N   0  0  0  0  0  0  0  0  0  0  0  0
   -1.0738    2.7000    0.0000 C   0  0  0  0  0  0  0  0  0  0  0  0
   -0.2892    2.9550    0.0000 N   0  0  0  0  0  0  0  0  0  0  0  0
    0.1957    2.2875    0.0000 C   0  0  0  0  0  0  0  0  0  0  0  0
   -0.2892    1.6201    0.0000 C   0  0  0  0  0  0  0  0  0  0  0  0
   -1.0738    1.8750    0.0000 C   0  0  0  0  0  0  0  0  0  0  0  0
   -0.1207   -1.0038    0.0000 C   0  0  0  0  0  0  0  0  0  0  0  0
    0.1750   -1.7740    0.0000 N   0  0  0  0  0  0  0  0  0  0  0  0
   -0.5952   -2.0696    0.0000 C   0  0  0  0  0  0  0  0  0  0  0  0
    0.9286   -2.1095    0.0000 S   0  0  0  0  0  0  0  0  0  0  0  0
    0.5931   -2.8632    0.0000 O   0  0  0  0  0  0  0  0  0  0  0  0
    1.2642   -1.3559    0.0000 O   0  0  0  0  0  0  0  0  0  0  0  0
    1.6823   -2.4451    0.0000 C   0  0  0  0  0  0  0  0  0  0  0  0
    2.5028   -2.3589    0.0000 C   0  0  0  0  0  0  0  0  0  0  0  0
    2.1672   -3.1125    0.0000 C   0  0  0  0  0  0  0  0  0  0  0  0
  1  2  3  0      
  2  3  1  0      
  3  4  1  0      
  4  5  1  0      
  5  6  1  0      
  6  7  2  0      
  7  8  1  0      
  8  9  2  0      
  5  9  1  0      
  8 10  1  0      
 10 11  1  0      
 11 12  2  0      
 12 13  1  0      
 13 14  2  0      
 14 15  1  0      
 15 16  1  0      
 16 17  2  0      
 17 18  1  0      
 14 18  1  0      
 10 18  2  0      
  4 19  1  0      
 19 20  1  0      
 20 21  1  0      
  4 21  1  0      
 20 22  1  0      
 22 23  2  0      
 22 24  2  0      
 22 25  1  0      
 25 26  1  0      
 26 27  1  0      
 25 27  1  0      
M  END

>  <RackCode>
HYCPK72334

>  <Cat. No.>
HY-132819

>  <Product Name>
Ilunocitinib

>  <ROW>
D

>  <COLUMN>
10

>  <CAS No.>
1187594-14-4

>  <MWt>
383.43

>  <Target>
JAK

>  <Saltdate>


>  <Smiles>
N#CCC1(CN(S(=O)(C2CC2)=O)C1)N3N=CC(C4=C5C=CNC5=NC=N4)=C3

>  <Solvent>
DMSO Solution

>  <Batch No.>
133621

>  <Quantity>
10mM  * 50uL

>  <Pathway>
Epigenetics; JAK/STAT Signaling; Protein Tyrosine Kinase/RTK; Stem Cell/Wnt

>  <Synonyms>
LY-3411067

>  <Formula>
C17H17N7O2S

>  <Research_Area>
Others

>  <Clinical_Information>
No Development Reported

>  <SUPPLIER>
MedChemExpress

$$$$
Untitled Document
  ChemDraw11081612402D

 31 35  0  0  0  0  0  0  0  0999 V2000
    2.3805    4.3313    0.0000 C   0  0  0  0  0  0  0  0  0  0  0  0
    3.0949    4.7438    0.0000 C   0  0  0  0  0  0  0  0  0  0  0  0
    3.0949    3.9188    0.0000 C   0  0  0  0  0  0  0  0  0  0  0  0
    1.5555    4.3313    0.0000 C   0  0  0  0  0  0  0  0  0  0  0  0
    1.1430    5.0456    0.0000 O   0  0  0  0  0  0  0  0  0  0  0  0
    1.1430    3.6169    0.0000 N   0  0  0  0  0  0  0  0  0  0  0  0
   -0.9515    4.0294    0.0000 C   0  0  0  0  0  0  0  0  0  0  0  0
   -1.6662    4.4419    0.0000 C   0  0  0  0  0  0  0  0  0  0  0  0
   -2.3805    4.0294    0.0000 C   0  0  0  0  0  0  0  0  0  0  0  0
   -2.3805    3.2044    0.0000 C   0  0  0  0  0  0  0  0  0  0  0  0
   -1.6662    2.7919    0.0000 C   0  0  0  0  0  0  0  0  0  0  0  0
   -0.9515    3.2044    0.0000 N   0  0  0  0  0  0  0  0  0  0  0  0
   -0.1669    2.9493    0.0000 N   0  0  0  0  0  0  0  0  0  0  0  0
    0.3180    3.6169    0.0000 C   0  0  0  0  0  0  0  0  0  0  0  0
   -0.1669    4.2842    0.0000 N   0  0  0  0  0  0  0  0  0  0  0  0
   -1.6662    1.9669    0.0000 C   0  0  0  0  0  0  0  0  0  0  0  0
   -0.9515    1.5544    0.0000 C   0  0  0  0  0  0  0  0  0  0  0  0
   -0.9515    0.7294    0.0000 C   0  0  0  0  0  0  0  0  0  0  0  0
   -1.6662    0.3169    0.0000 C   0  0  0  0  0  0  0  0  0  0  0  0
   -2.3805    0.7294    0.0000 C   0  0  0  0  0  0  0  0  0  0  0  0
   -2.3805    1.5544    0.0000 C   0  0  0  0  0  0  0  0  0  0  0  0
   -1.6662   -0.5081    0.0000 O   0  0  0  0  0  0  0  0  0  0  0  0
   -2.3805   -0.9206    0.0000 C   0  0  0  0  0  0  0  0  0  0  0  0
   -3.0949   -2.1581    0.0000 C   0  0  0  0  0  0  0  0  0  0  0  0
   -2.3805   -1.7456    0.0000 C   0  0  0  0  0  0  0  0  0  0  0  0
   -1.6662   -2.1581    0.0000 C   0  0  0  0  0  0  0  0  0  0  0  0
   -1.6662   -2.9831    0.0000 C   0  0  0  0  0  0  0  0  0  0  0  0
   -2.3805   -3.3956    0.0000 C   0  0  0  0  0  0  0  0  0  0  0  0
   -3.0949   -2.9831    0.0000 N   0  0  0  0  0  0  0  0  0  0  0  0
   -2.3805   -4.2206    0.0000 C   0  0  0  0  0  0  0  0  0  0  0  0
   -2.3805   -5.0456    0.0000 N   0  0  0  0  0  0  0  0  0  0  0  0
  1  2  1  0      
  2  3  1  0      
  1  3  1  0      
  4  5  2  0      
  4  6  1  0      
  1  4  1  0      
  7  8  1  0      
  8  9  2  0      
  9 10  1  0      
 10 11  2  0      
 11 12  1  0      
  7 12  1  0      
 13 14  2  0      
 14 15  1  0      
 12 13  1  0      
  7 15  2  0      
 16 17  1  0      
 17 18  2  0      
 18 19  1  0      
 19 20  2  0      
 20 21  1  0      
 16 21  2  0      
 22 23  1  0      
 24 25  1  0      
 25 26  2  0      
 26 27  1  0      
 27 28  2  0      
 28 29  1  0      
 24 29  2  0      
 30 31  3  0      
 28 30  1  0      
 23 25  1  0      
 19 22  1  0      
 11 16  1  0      
  6 14  1  0      
M  END

>  <RackCode>
HYCPK72334

>  <Cat. No.>
HY-13961

>  <Product Name>
GLPG0634 analog

>  <ROW>
E

>  <COLUMN>
10

>  <CAS No.>
1206101-20-3

>  <MWt>
410.43

>  <Target>
JAK

>  <Saltdate>
Free Base

>  <Smiles>
O=C(C1CC1)NC2=NN3C(C4=CC=C(OCC5=CC=C(C#N)N=C5)C=C4)=CC=CC3=N2

>  <Solvent>
DMSO Solution

>  <Batch No.>
13431

>  <Quantity>
10mM  * 50uL

>  <Pathway>
Epigenetics; JAK/STAT Signaling; Protein Tyrosine Kinase/RTK; Stem Cell/Wnt

>  <Synonyms>


>  <Formula>
C23H18N6O2

>  <Research_Area>
Cancer

>  <Clinical_Information>
No Development Reported

>  <SUPPLIER>
MedChemExpress

$$$$
Untitled Document
  ChemDraw11112110002D

 18 19  0  0  0  0  0  0  0  0999 V2000
    1.0717   -0.8250    0.0000 C   0  0  0  0  0  0  0  0  0  0  0  0
    1.7862   -1.2375    0.0000 N   0  0  0  0  0  0  0  0  0  0  0  0
    2.5006   -0.8250    0.0000 C   0  0  0  0  0  0  0  0  0  0  0  0
    2.5006    0.0000    0.0000 C   0  0  0  0  0  0  0  0  0  0  0  0
    1.7862    0.4125    0.0000 C   0  0  0  0  0  0  0  0  0  0  0  0
    1.0717    0.0000    0.0000 N   0  0  0  0  0  0  0  0  0  0  0  0
    3.2151   -1.2375    0.0000 O   0  0  0  0  0  0  0  0  0  0  0  0
    1.7862    1.2375    0.0000 C   0  0  0  0  0  0  0  0  0  0  0  0
    0.3572   -1.2375    0.0000 N   0  0  0  0  0  0  0  0  0  0  0  0
   -0.3572   -0.8250    0.0000 N   0  0  0  0  0  0  0  0  0  0  0  0
   -1.0717   -1.2375    0.0000 C   0  0  0  0  0  0  0  0  0  0  0  0
   -1.7862   -0.8250    0.0000 C   0  0  0  0  0  0  0  0  0  0  0  0
   -1.7862    0.0000    0.0000 C   0  0  0  0  0  0  0  0  0  0  0  0
   -2.5006    0.4125    0.0000 C   0  0  0  0  0  0  0  0  0  0  0  0
   -3.2151    0.0000    0.0000 C   0  0  0  0  0  0  0  0  0  0  0  0
   -3.2151   -0.8250    0.0000 C   0  0  0  0  0  0  0  0  0  0  0  0
   -2.5006   -1.2375    0.0000 C   0  0  0  0  0  0  0  0  0  0  0  0
   -1.0717    0.4125    0.0000 O   0  0  0  0  0  0  0  0  0  0  0  0
  1  2  1  0      
  2  3  2  0      
  3  4  1  0      
  4  5  2  0      
  5  6  1  0      
  1  6  2  0      
  3  7  1  0      
  5  8  1  0      
  9 10  1  0      
 11 12  1  0      
 12 13  1  0      
 13 14  2  0      
 14 15  1  0      
 15 16  2  0      
 16 17  1  0      
 12 17  2  0      
 13 18  1  0      
 10 11  2  0      
  1  9  1  0      
M  END

>  <RackCode>
HYCPK72334

>  <Cat. No.>
HY-139782

>  <Product Name>
SKLB325

>  <ROW>
F

>  <COLUMN>
10

>  <CAS No.>
66680-03-3

>  <MWt>
244.25

>  <Target>
Apoptosis; Histone Demethylase

>  <Saltdate>


>  <Smiles>
OC1=NC(N/N=C/C2=CC=CC=C2O)=NC(C)=C1

>  <Solvent>
DMSO Solution

>  <Batch No.>
122532

>  <Quantity>
10mM  * 50uL

>  <Pathway>
Apoptosis; Epigenetics

>  <Synonyms>


>  <Formula>
C12H12N4O2

>  <Research_Area>
Cancer

>  <Clinical_Information>
No Development Reported

>  <SUPPLIER>
MedChemExpress

$$$$
Untitled Document
  ChemDraw06042014232D

 20 22  0  0  0  0  0  0  0  0999 V2000
    1.6716   -0.0235    0.0000 C   0  0  0  0  0  0  0  0  0  0  0  0
    2.4920   -0.1098    0.0000 C   0  0  0  0  0  0  0  0  0  0  0  0
    2.8276   -0.8634    0.0000 C   0  0  0  0  0  0  0  0  0  0  0  0
    2.3427   -1.5309    0.0000 C   0  0  0  0  0  0  0  0  0  0  0  0
    1.5222   -1.4446    0.0000 C   0  0  0  0  0  0  0  0  0  0  0  0
    1.1866   -0.6910    0.0000 C   0  0  0  0  0  0  0  0  0  0  0  0
    1.3360    0.7302    0.0000 N   0  0  0  0  0  0  0  0  0  0  0  0
    3.6481   -0.9497    0.0000 N   0  0  0  0  0  0  0  0  0  0  0  0
   -0.0365    0.2033    0.0000 O   0  0  0  0  0  0  0  0  0  0  0  0
    0.5155    0.8164    0.0000 C   0  0  0  0  0  0  0  0  0  0  0  0
    0.1030    1.5309    0.0000 N   0  0  0  0  0  0  0  0  0  0  0  0
   -0.7040    1.3593    0.0000 C   0  0  0  0  0  0  0  0  0  0  0  0
   -0.7902    0.5389    0.0000 C   0  0  0  0  0  0  0  0  0  0  0  0
   -1.5047    0.1264    0.0000 C   0  0  0  0  0  0  0  0  0  0  0  0
   -1.5047   -0.6986    0.0000 C   0  0  0  0  0  0  0  0  0  0  0  0
   -2.2191   -1.1111    0.0000 C   0  0  0  0  0  0  0  0  0  0  0  0
   -2.9336   -0.6986    0.0000 C   0  0  0  0  0  0  0  0  0  0  0  0
   -2.9336    0.1264    0.0000 C   0  0  0  0  0  0  0  0  0  0  0  0
   -2.2191    0.5389    0.0000 C   0  0  0  0  0  0  0  0  0  0  0  0
   -3.6481   -1.1111    0.0000 Cl  0  0  0  0  0  0  0  0  0  0  0  0
  1  2  1  0      
  2  3  2  0      
  3  4  1  0      
  4  5  2  0      
  5  6  1  0      
  1  6  2  0      
  1  7  1  0      
  3  8  1  0      
  9 10  1  0      
 10 11  2  0      
 11 12  1  0      
 12 13  2  0      
  9 13  1  0      
 14 15  1  0      
 15 16  2  0      
 16 17  1  0      
 17 18  2  0      
 18 19  1  0      
 14 19  2  0      
 17 20  1  0      
 13 14  1  0      
  7 10  1  0      
M  END

>  <RackCode>
HYCPK72334

>  <Cat. No.>
HY-135899

>  <Product Name>
SIRT7 inhibitor 97491

>  <ROW>
G

>  <COLUMN>
10

>  <CAS No.>
1807758-81-1

>  <MWt>
285.73

>  <Target>
Apoptosis; Sirtuin

>  <Saltdate>


>  <Smiles>
NC1=CC(NC2=NC=C(C3=CC=C(Cl)C=C3)O2)=CC=C1

>  <Solvent>
DMSO Solution

>  <Batch No.>
79115

>  <Quantity>
10mM  * 50uL

>  <Pathway>
Apoptosis; Cell Cycle/DNA Damage; Epigenetics

>  <Synonyms>


>  <Formula>
C15H12ClN3O

>  <Research_Area>
Cancer

>  <Clinical_Information>
No Development Reported

>  <SUPPLIER>
MedChemExpress

$$$$
Untitled Document
  ChemDraw04252116252D

 28 30  0  0  0  0  0  0  0  0999 V2000
    2.5006   -0.2062    0.0000 C   0  0  0  0  0  0  0  0  0  0  0  0
    1.7862   -0.6187    0.0000 C   0  0  0  0  0  0  0  0  0  0  0  0
    1.0717   -0.2062    0.0000 C   0  0  0  0  0  0  0  0  0  0  0  0
    1.0717    0.6187    0.0000 C   0  0  0  0  0  0  0  0  0  0  0  0
    1.7862    1.0313    0.0000 C   0  0  0  0  0  0  0  0  0  0  0  0
    2.5006    0.6187    0.0000 C   0  0  0  0  0  0  0  0  0  0  0  0
    3.2151   -0.6187    0.0000 C   0  0  0  0  0  0  0  0  0  0  0  0
    3.9296   -0.2062    0.0000 C   0  0  0  0  0  0  0  0  0  0  0  0
    4.6441   -0.6187    0.0000 C   0  0  0  0  0  0  0  0  0  0  0  0
    4.6441   -1.4437    0.0000 C   0  0  0  0  0  0  0  0  0  0  0  0
    3.9296   -1.8563    0.0000 C   0  0  0  0  0  0  0  0  0  0  0  0
    3.2151   -1.4437    0.0000 C   0  0  0  0  0  0  0  0  0  0  0  0
    0.3572   -0.6187    0.0000 C   0  0  0  0  0  0  0  0  0  0  0  0
    0.3572   -1.4437    0.0000 O   0  0  0  0  0  0  0  0  0  0  0  0
   -0.3572   -0.2062    0.0000 N   0  0  0  0  0  0  0  0  0  0  0  0
   -1.0717   -0.6187    0.0000 N   0  0  0  0  0  0  0  0  0  0  0  0
   -1.7862   -0.2062    0.0000 S   0  0  0  0  0  0  0  0  0  0  0  0
   -1.3737    0.5082    0.0000 O   0  0  0  0  0  0  0  0  0  0  0  0
   -2.1987   -0.9207    0.0000 O   0  0  0  0  0  0  0  0  0  0  0  0
   -2.5006    0.2062    0.0000 C   0  0  0  0  0  0  0  0  0  0  0  0
   -3.2151   -0.2062    0.0000 C   0  0  0  0  0  0  0  0  0  0  0  0
   -3.9296    0.2062    0.0000 C   0  0  0  0  0  0  0  0  0  0  0  0
   -3.9296    1.0313    0.0000 C   0  0  0  0  0  0  0  0  0  0  0  0
   -3.2151    1.4437    0.0000 C   0  0  0  0  0  0  0  0  0  0  0  0
   -2.5006    1.0313    0.0000 C   0  0  0  0  0  0  0  0  0  0  0  0
   -4.6441   -0.2062    0.0000 O   0  0  0  0  0  0  0  0  0  0  0  0
    1.7862    1.8563    0.0000 C   0  0  0  0  0  0  0  0  0  0  0  0
    0.3572    1.0313    0.0000 F   0  0  0  0  0  0  0  0  0  0  0  0
  1  2  1  0      
  2  3  2  0      
  3  4  1  0      
  4  5  2  0      
  5  6  1  0      
  1  6  2  0      
  7  8  1  0      
  8  9  2  0      
  9 10  1  0      
 10 11  2  0      
 11 12  1  0      
  7 12  2  0      
  1  7  1  0      
 13 14  2  0      
 15 16  1  0      
 17 18  2  0      
 17 19  2  0      
 20 21  1  0      
 21 22  2  0      
 22 23  1  0      
 23 24  2  0      
 24 25  1  0      
 20 25  2  0      
 22 26  1  0      
 17 20  1  0      
 16 17  1  0      
 13 15  1  0      
  3 13  1  0      
  5 27  1  0      
  4 28  1  0      
M  END

>  <RackCode>
HYCPK72334

>  <Cat. No.>
HY-134901

>  <Product Name>
WM-3835

>  <ROW>
H

>  <COLUMN>
10

>  <CAS No.>
2229025-70-9

>  <MWt>
400.42

>  <Target>
Apoptosis; Histone Acetyltransferase

>  <Saltdate>


>  <Smiles>
O=C(C1=CC(C2=CC=CC=C2)=CC(C)=C1F)NNS(=O)(C3=CC=CC(O)=C3)=O

>  <Solvent>
DMSO Solution

>  <Batch No.>
102504

>  <Quantity>
10mM  * 50uL

>  <Pathway>
Apoptosis; Epigenetics

>  <Synonyms>


>  <Formula>
C20H17FN2O4S

>  <Research_Area>
Cancer

>  <Clinical_Information>
No Development Reported

>  <SUPPLIER>
MedChemExpress

$$$$
Untitled Document
  ChemDraw12141610432D

 42 46  0  0  0  0  0  0  0  0999 V2000
   -0.8957   -1.1255    0.0000 C   0  0  0  0  0  0  0  0  0  0  0  0
   -0.8957   -1.9504    0.0000 C   0  0  0  0  0  0  0  0  0  0  0  0
   -0.1111   -0.8705    0.0000 S   0  0  0  0  0  0  0  0  0  0  0  0
    0.3738   -1.5379    0.0000 C   0  0  0  0  0  0  0  0  0  0  0  0
   -0.1111   -2.2053    0.0000 N   0  0  0  0  0  0  0  0  0  0  0  0
    1.1988   -1.5379    0.0000 C   0  0  0  0  0  0  0  0  0  0  0  0
    1.6113   -2.2524    0.0000 C   0  0  0  0  0  0  0  0  0  0  0  0
    2.4363   -2.2524    0.0000 C   0  0  0  0  0  0  0  0  0  0  0  0
    2.8487   -1.5379    0.0000 C   0  0  0  0  0  0  0  0  0  0  0  0
    2.4363   -0.8235    0.0000 C   0  0  0  0  0  0  0  0  0  0  0  0
    1.6113   -0.8235    0.0000 C   0  0  0  0  0  0  0  0  0  0  0  0
   -1.6102   -0.7130    0.0000 N   0  0  0  0  0  0  0  0  0  0  0  0
   -2.3247   -1.1255    0.0000 C   0  0  0  0  0  0  0  0  0  0  0  0
   -2.3247   -1.9504    0.0000 C   0  0  0  0  0  0  0  0  0  0  0  0
   -1.6102   -2.3629    0.0000 C   0  0  0  0  0  0  0  0  0  0  0  0
   -3.0391   -2.3629    0.0000 C   0  0  0  0  0  0  0  0  0  0  0  0
    1.6113    0.6054    0.0000 C   0  0  0  0  0  0  0  0  0  0  0  0
    2.4363    0.6054    0.0000 O   0  0  0  0  0  0  0  0  0  0  0  0
    1.1988   -0.1090    0.0000 N   0  0  0  0  0  0  0  0  0  0  0  0
   -4.6467   -0.9585    0.0000 C   0  0  0  0  0  0  0  0  0  0  0  0
   -5.0592   -1.6728    0.0000 C   0  0  0  0  0  0  0  0  0  0  0  0
   -4.5072   -2.2859    0.0000 C   0  0  0  0  0  0  0  0  0  0  0  0
   -3.7535   -1.9504    0.0000 N   0  0  0  0  0  0  0  0  0  0  0  0
   -3.8398   -1.1300    0.0000 C   0  0  0  0  0  0  0  0  0  0  0  0
    0.3783    1.4061    0.0000 N   0  0  0  0  0  0  0  0  0  0  0  0
    1.1988    1.3199    0.0000 C   0  0  0  0  0  0  0  0  0  0  0  0
    1.5344    2.0736    0.0000 C   0  0  0  0  0  0  0  0  0  0  0  0
    0.9213    2.6256    0.0000 S   0  0  0  0  0  0  0  0  0  0  0  0
    2.3413    2.2451    0.0000 C   0  0  0  0  0  0  0  0  0  0  0  0
    2.8933    1.6320    0.0000 C   0  0  0  0  0  0  0  0  0  0  0  0
    3.7002    1.8035    0.0000 C   0  0  0  0  0  0  0  0  0  0  0  0
    4.2523    1.1904    0.0000 O   0  0  0  0  0  0  0  0  0  0  0  0
    5.0592    1.3620    0.0000 C   0  0  0  0  0  0  0  0  0  0  0  0
    0.2068    2.2131    0.0000 C   0  0  0  0  0  0  0  0  0  0  0  0
   -0.5469    2.5487    0.0000 C   0  0  0  0  0  0  0  0  0  0  0  0
   -0.6331    3.3691    0.0000 C   0  0  0  0  0  0  0  0  0  0  0  0
   -1.3868    3.7047    0.0000 C   0  0  0  0  0  0  0  0  0  0  0  0
   -2.0542    3.2198    0.0000 C   0  0  0  0  0  0  0  0  0  0  0  0
   -1.9680    2.3993    0.0000 C   0  0  0  0  0  0  0  0  0  0  0  0
   -1.2143    2.0637    0.0000 C   0  0  0  0  0  0  0  0  0  0  0  0
    0.2813   -3.7047    0.0000 Cl  0  0  0  0  0  0  0  0  0  0  0  0
   -0.5437   -3.7047    0.0000 H   0  0  0  0  0  0  0  0  0  0  0  0
  1  2  2  0      
  1  3  1  0      
  3  4  1  0      
  4  5  2  0      
  2  5  1  0      
  4  6  1  0      
  6  7  2  0      
  7  8  1  0      
  8  9  2  0      
  9 10  1  0      
 10 11  2  0      
 11  6  1  0      
  1 12  1  0      
 12 13  2  0      
 13 14  1  0      
 14 15  2  0      
 15  2  1  0      
 14 16  1  0      
 17 18  2  0      
 17 19  1  0      
 19 11  1  0      
 20 21  1  0      
 21 22  1  0      
 22 23  1  0      
 23 24  1  0      
 24 20  1  0      
 16 23  1  0      
 25 26  1  0      
 26 27  2  0      
 27 28  1  0      
 29 27  1  0      
 30 29  1  0      
 31 30  1  0      
 32 31  1  0      
 32 33  1  0      
 28 34  1  0      
 34 25  2  0      
 34 35  1  0      
 35 36  2  0      
 36 37  1  0      
 37 38  2  0      
 38 39  1  0      
 39 40  2  0      
 40 35  1  0      
 26 17  1  0      
 41 42  1  0      
M  END

>  <RackCode>
HYCPK72334

>  <Cat. No.>
HY-19758A

>  <Product Name>
Sirtuin modulator 1

>  <ROW>
I

>  <COLUMN>
10

>  <CAS No.>
2070015-26-6

>  <MWt>
606.20

>  <Target>
Sirtuin

>  <Saltdate>
Hydrochloride

>  <Smiles>
O=C(C1=C(CCCOC)SC(C2=CC=CC=C2)=N1)NC3=CC=CC=C3C4=NC5=C(N=CC(CN6CCCC6)=C5)S4.Cl[H]

>  <Solvent>
DMSO Solution

>  <Batch No.>
19768

>  <Quantity>
10mM  * 50uL

>  <Pathway>
Cell Cycle/DNA Damage; Epigenetics

>  <Synonyms>


>  <Formula>
C31H32ClN5O2S2

>  <Research_Area>
Cancer

>  <Clinical_Information>
No Development Reported

>  <SUPPLIER>
MedChemExpress

$$$$
Untitled Document
  ChemDraw07022117182D

 25 27  0  0  0  0  0  0  0  0999 V2000
   -1.3673   -1.0313    0.0000 C   0  0  0  0  0  0  0  0  0  0  0  0
   -0.6529   -1.4437    0.0000 N   0  0  0  0  0  0  0  0  0  0  0  0
    0.0616   -1.0313    0.0000 C   0  0  0  0  0  0  0  0  0  0  0  0
    0.0616   -0.2062    0.0000 C   0  0  0  0  0  0  0  0  0  0  0  0
   -0.6529    0.2062    0.0000 C   0  0  0  0  0  0  0  0  0  0  0  0
   -1.3673   -0.2062    0.0000 N   0  0  0  0  0  0  0  0  0  0  0  0
    0.7761   -1.4437    0.0000 O   0  0  0  0  0  0  0  0  0  0  0  0
   -0.6529    1.0313    0.0000 O   0  0  0  0  0  0  0  0  0  0  0  0
   -2.0819   -1.4437    0.0000 S   0  0  0  0  0  0  0  0  0  0  0  0
    0.7761    0.2062    0.0000 C   0  0  0  0  0  0  0  0  0  0  0  0
    1.4906   -0.2062    0.0000 C   0  0  0  0  0  0  0  0  0  0  0  0
    2.2051    0.2062    0.0000 C   0  0  0  0  0  0  0  0  0  0  0  0
    3.0058   -1.0267    0.0000 O   0  0  0  0  0  0  0  0  0  0  0  0
    2.9196   -0.2062    0.0000 C   0  0  0  0  0  0  0  0  0  0  0  0
    3.6733    0.1293    0.0000 C   0  0  0  0  0  0  0  0  0  0  0  0
    4.2253   -0.4838    0.0000 C   0  0  0  0  0  0  0  0  0  0  0  0
    3.8128   -1.1983    0.0000 C   0  0  0  0  0  0  0  0  0  0  0  0
   -2.0819    0.2062    0.0000 C   0  0  0  0  0  0  0  0  0  0  0  0
   -2.7964   -0.2062    0.0000 C   0  0  0  0  0  0  0  0  0  0  0  0
   -3.5108    0.2062    0.0000 C   0  0  0  0  0  0  0  0  0  0  0  0
   -3.5108    1.0313    0.0000 C   0  0  0  0  0  0  0  0  0  0  0  0
   -2.7964    1.4437    0.0000 C   0  0  0  0  0  0  0  0  0  0  0  0
   -2.0819    1.0313    0.0000 C   0  0  0  0  0  0  0  0  0  0  0  0
   -4.2253    1.4437    0.0000 C   0  0  0  0  0  0  0  0  0  0  0  0
   -4.2253   -0.2062    0.0000 Cl  0  0  0  0  0  0  0  0  0  0  0  0
  1  2  1  0      
  2  3  1  0      
  3  4  1  0      
  4  5  1  0      
  5  6  1  0      
  1  6  1  0      
  3  7  2  0      
  5  8  2  0      
  1  9  2  0      
 10 11  1  0      
 11 12  2  0      
 13 14  1  0      
 14 15  2  0      
 15 16  1  0      
 16 17  2  0      
 13 17  1  0      
 12 14  1  0      
  4 10  2  0      
 18 19  1  0      
 19 20  2  0      
 20 21  1  0      
 21 22  2  0      
 22 23  1  0      
 18 23  2  0      
 21 24  1  0      
 20 25  1  0      
  6 18  1  0      
M  END

>  <RackCode>
HYCPK72334

>  <Cat. No.>
HY-139108

>  <Product Name>
DCH36_06

>  <ROW>
J

>  <COLUMN>
10

>  <CAS No.>
593273-05-3

>  <MWt>
372.83

>  <Target>
Apoptosis; Histone Acetyltransferase

>  <Saltdate>


>  <Smiles>
O=C(/C(C(N1C2=CC=C(C)C(Cl)=C2)=O)=C\C=C\C3=CC=CO3)NC1=S

>  <Solvent>
DMSO Solution

>  <Batch No.>
120203

>  <Quantity>
10mM  * 50uL

>  <Pathway>
Apoptosis; Epigenetics

>  <Synonyms>


>  <Formula>
C18H13ClN2O3S

>  <Research_Area>
Cancer

>  <Clinical_Information>
No Development Reported

>  <SUPPLIER>
MedChemExpress

$$$$
Untitled Document
  ChemDraw09121710242D

 32 36  0  0  0  0  0  0  0  0999 V2000
    3.8082   -1.6905    0.0000 C   0  0  0  0  0  0  0  0  0  0  0  0
    3.3957   -0.9760    0.0000 C   0  0  0  0  0  0  0  0  0  0  0  0
    2.5707   -0.9760    0.0000 C   0  0  0  0  0  0  0  0  0  0  0  0
    2.1582   -0.2615    0.0000 C   0  0  0  0  0  0  0  0  0  0  0  0
    2.5707    0.4530    0.0000 C   0  0  0  0  0  0  0  0  0  0  0  0
    3.3957    0.4530    0.0000 C   0  0  0  0  0  0  0  0  0  0  0  0
    3.8082   -0.2615    0.0000 C   0  0  0  0  0  0  0  0  0  0  0  0
    3.3957   -2.4049    0.0000 O   0  0  0  0  0  0  0  0  0  0  0  0
    4.6332   -1.6905    0.0000 O   0  0  0  0  0  0  0  0  0  0  0  0
    1.3332   -0.2615    0.0000 N   0  0  0  0  0  0  0  0  0  0  0  0
    0.9207    0.4530    0.0000 C   0  0  0  0  0  0  0  0  0  0  0  0
    1.3332    1.1674    0.0000 O   0  0  0  0  0  0  0  0  0  0  0  0
    0.0957    0.4530    0.0000 C   0  0  0  0  0  0  0  0  0  0  0  0
   -0.3168    1.1674    0.0000 O   0  0  0  0  0  0  0  0  0  0  0  0
   -1.1418    1.1674    0.0000 C   0  0  0  0  0  0  0  0  0  0  0  0
   -1.5543    0.4530    0.0000 C   0  0  0  0  0  0  0  0  0  0  0  0
   -2.3793    0.4530    0.0000 C   0  0  0  0  0  0  0  0  0  0  0  0
   -2.7918    1.1674    0.0000 C   0  0  0  0  0  0  0  0  0  0  0  0
   -2.3793    1.8819    0.0000 C   0  0  0  0  0  0  0  0  0  0  0  0
   -1.5543    1.8819    0.0000 C   0  0  0  0  0  0  0  0  0  0  0  0
   -3.6168    1.1674    0.0000 C   0  0  0  0  0  0  0  0  0  0  0  0
   -4.1648    0.7721    0.0000 C   0  0  0  0  0  0  0  0  0  0  0  0
   -5.0457    1.1674    0.0000 C   0  0  0  0  0  0  0  0  0  0  0  0
   -5.0307    0.3632    0.0000 C   0  0  0  0  0  0  0  0  0  0  0  0
   -4.3316   -0.0347    0.0000 C   0  0  0  0  0  0  0  0  0  0  0  0
   -4.6805    1.5885    0.0000 C   0  0  0  0  0  0  0  0  0  0  0  0
   -4.3313    2.4049    0.0000 C   0  0  0  0  0  0  0  0  0  0  0  0
   -3.6168    1.9924    0.0000 C   0  0  0  0  0  0  0  0  0  0  0  0
   -3.6325    0.3632    0.0000 C   0  0  0  0  0  0  0  0  0  0  0  0
   -5.0457    1.9924    0.0000 C   0  0  0  0  0  0  0  0  0  0  0  0
    2.5707    1.2780    0.0000 O   0  0  0  0  0  0  0  0  0  0  0  0
    5.0457   -2.4049    0.0000 C   0  0  0  0  0  0  0  0  0  0  0  0
  1  2  1  0      
  2  3  1  0      
  3  4  2  0      
  4  5  1  0      
  5  6  2  0      
  6  7  1  0      
  2  7  2  0      
  1  8  2  0      
  1  9  1  0      
 11 12  2  0      
 11 13  1  0      
 15 16  1  0      
 16 17  2  0      
 17 18  1  0      
 18 19  2  0      
 19 20  1  0      
 15 20  2  0      
 14 15  1  0      
 21 22  1  0      
 22 23  1  0      
 23 24  1  0      
 24 25  1  0      
 25 26  1  0      
 26 27  1  0      
 27 28  1  0      
 21 28  1  0      
 21 29  1  0      
 25 29  1  0      
 27 30  1  0      
 23 30  1  0      
 18 21  1  0      
 13 14  1  0      
 10 11  1  0      
  4 10  1  0      
  5 31  1  0      
  9 32  1  0      
M  END

>  <RackCode>
HYCPK72334

>  <Cat. No.>
HY-13671

>  <Product Name>
LW6

>  <ROW>
K

>  <COLUMN>
10

>  <CAS No.>
934593-90-5

>  <MWt>
435.51

>  <Target>
Apoptosis; HIF/HIF Prolyl-Hydroxylase

>  <Saltdate>
Free Base

>  <Smiles>
O=C(OC)C1=CC=C(O)C(NC(COC2=CC=C(C3(C4)CC5CC4CC(C5)C3)C=C2)=O)=C1

>  <Solvent>
DMSO Solution

>  <Batch No.>
151955

>  <Quantity>
10mM  * 50uL

>  <Pathway>
Apoptosis; Metabolic Enzyme/Protease

>  <Synonyms>
HIF-1¦Á inhibitor; LW8

>  <Formula>
C26H29NO5

>  <Research_Area>
Cancer

>  <Clinical_Information>
No Development Reported

>  <SUPPLIER>
MedChemExpress

$$$$
Untitled Document
  ChemDraw09181911172D

 27 29  0  0  0  0  0  0  0  0999 V2000
   -2.9936   -0.3366    0.0000 N   0  0  0  0  0  0  0  0  0  0  0  0
   -2.7801   -1.1335    0.0000 C   0  0  0  0  0  0  0  0  0  0  0  0
   -1.9832   -1.3471    0.0000 N   0  0  0  0  0  0  0  0  0  0  0  0
   -1.3998   -0.7637    0.0000 N   0  0  0  0  0  0  0  0  0  0  0  0
   -1.6134    0.0332    0.0000 C   0  0  0  0  0  0  0  0  0  0  0  0
   -2.4102    0.2467    0.0000 C   0  0  0  0  0  0  0  0  0  0  0  0
   -2.7848    0.9818    0.0000 C   0  0  0  0  0  0  0  0  0  0  0  0
   -3.5996    0.8527    0.0000 C   0  0  0  0  0  0  0  0  0  0  0  0
   -3.7287    0.0379    0.0000 C   0  0  0  0  0  0  0  0  0  0  0  0
   -4.3347    1.2273    0.0000 S   0  0  0  0  0  0  0  0  0  0  0  0
   -4.9181    0.6439    0.0000 C   0  0  0  0  0  0  0  0  0  0  0  0
   -4.5435   -0.0912    0.0000 C   0  0  0  0  0  0  0  0  0  0  0  0
   -0.6029   -0.9772    0.0000 C   0  0  0  0  0  0  0  0  0  0  0  0
   -0.0196   -0.3939    0.0000 C   0  0  0  0  0  0  0  0  0  0  0  0
    0.7773   -0.6074    0.0000 N   0  0  0  0  0  0  0  0  0  0  0  0
    1.3607   -0.0240    0.0000 C   0  0  0  0  0  0  0  0  0  0  0  0
    2.1576   -0.2375    0.0000 C   0  0  0  0  0  0  0  0  0  0  0  0
    2.7409    0.3458    0.0000 C   0  0  0  0  0  0  0  0  0  0  0  0
    3.5378    0.1323    0.0000 N   0  0  0  0  0  0  0  0  0  0  0  0
   -1.0300    0.6166    0.0000 O   0  0  0  0  0  0  0  0  0  0  0  0
   -0.2331    0.4030    0.0000 O   0  0  0  0  0  0  0  0  0  0  0  0
   -2.4102    1.7169    0.0000 C   0  0  0  0  0  0  0  0  0  0  0  0
   -3.3634   -1.7169    0.0000 C   0  0  0  0  0  0  0  0  0  0  0  0
    4.1212    0.7157    0.0000 C   0  0  0  0  0  0  0  0  0  0  0  0
    3.7513   -0.6646    0.0000 C   0  0  0  0  0  0  0  0  0  0  0  0
    4.9181    0.5021    0.0000 C   0  0  0  0  0  0  0  0  0  0  0  0
    4.5482   -0.8781    0.0000 C   0  0  0  0  0  0  0  0  0  0  0  0
  1  2  1  0      
  2  3  2  0      
  3  4  1  0      
  4  5  1  0      
  5  6  1  0      
  6  1  1  0      
  6  7  2  0      
  7  8  1  0      
  8  9  2  0      
  9  1  1  0      
  8 10  1  0      
 10 11  1  0      
 11 12  2  0      
 12  9  1  0      
  4 13  1  0      
 13 14  1  0      
 14 15  1  0      
 15 16  1  0      
 16 17  1  0      
 17 18  1  0      
 18 19  1  0      
  5 20  2  0      
 14 21  2  0      
  7 22  1  0      
  2 23  1  0      
 19 24  1  0      
 19 25  1  0      
 24 26  1  0      
 25 27  1  0      
M  END

>  <RackCode>
HYCPK72334

>  <Cat. No.>
HY-125292

>  <Product Name>
NV03

>  <ROW>
L

>  <COLUMN>
10

>  <CAS No.>
2448341-58-8

>  <MWt>
389.51

>  <Target>
Histone Methyltransferase; Ligands for E3 Ligase

>  <Saltdate>


>  <Smiles>
O=C1N(CC(NCCCN(CC)CC)=O)N=C(C)N2C1=C(C)C3=C2C=CS3

>  <Solvent>
DMSO Solution

>  <Batch No.>
234343

>  <Quantity>
10mM  * 50uL

>  <Pathway>
Epigenetics; PROTAC

>  <Synonyms>


>  <Formula>
C19H27N5O2S

>  <Research_Area>
Cancer

>  <Clinical_Information>
No Development Reported

>  <SUPPLIER>
MedChemExpress

$$$$
Untitled Document
  ChemDraw01282310282D

 19 20  0  0  0  0  0  0  0  0999 V2000
   -2.8578   -1.6500    0.0000 O   0  0  0  0  0  0  0  0  0  0  0  0
   -2.8578   -0.8250    0.0000 C   0  0  0  0  0  0  0  0  0  0  0  0
   -3.5723   -0.4125    0.0000 N   0  0  0  0  0  0  0  0  0  0  0  0
   -2.1433   -0.4125    0.0000 C   0  0  0  0  0  0  0  0  0  0  0  0
   -2.1433    0.4125    0.0000 C   0  0  0  0  0  0  0  0  0  0  0  0
   -1.4289    0.8250    0.0000 C   0  0  0  0  0  0  0  0  0  0  0  0
   -0.7145    0.4125    0.0000 C   0  0  0  0  0  0  0  0  0  0  0  0
   -0.0000    0.8250    0.0000 O   0  0  0  0  0  0  0  0  0  0  0  0
    0.7145    0.4125    0.0000 C   0  0  0  0  0  0  0  0  0  0  0  0
    0.7145   -0.4125    0.0000 C   0  0  0  0  0  0  0  0  0  0  0  0
    1.4289   -0.8250    0.0000 C   0  0  0  0  0  0  0  0  0  0  0  0
    2.1433   -0.4125    0.0000 C   0  0  0  0  0  0  0  0  0  0  0  0
    2.1433    0.4125    0.0000 C   0  0  0  0  0  0  0  0  0  0  0  0
    1.4289    0.8250    0.0000 C   0  0  0  0  0  0  0  0  0  0  0  0
    2.8578    0.8250    0.0000 C   0  0  0  0  0  0  0  0  0  0  0  0
    2.8578    1.6500    0.0000 O   0  0  0  0  0  0  0  0  0  0  0  0
    3.5723    0.4125    0.0000 N   0  0  0  0  0  0  0  0  0  0  0  0
   -0.7145   -0.4125    0.0000 C   0  0  0  0  0  0  0  0  0  0  0  0
   -1.4289   -0.8250    0.0000 C   0  0  0  0  0  0  0  0  0  0  0  0
  1  2  2  0      
  2  3  1  0      
  2  4  1  0      
  4  5  2  0      
  5  6  1  0      
  6  7  2  0      
  7  8  1  0      
  8  9  1  0      
  9 10  2  0      
 10 11  1  0      
 11 12  2  0      
 12 13  1  0      
 13 14  2  0      
  9 14  1  0      
 13 15  1  0      
 15 16  2  0      
 15 17  1  0      
  7 18  1  0      
 18 19  2  0      
  4 19  1  0      
M  END

>  <RackCode>
HYCPK72334

>  <Cat. No.>
HY-148754

>  <Product Name>
PARP10-IN-3

>  <ROW>
M

>  <COLUMN>
10

>  <CAS No.>
2225800-19-9

>  <MWt>
256.26

>  <Target>
PARP

>  <Saltdate>


>  <Smiles>
O=C(C1=CC=C(C=C1)OC2=CC=CC(C(N)=O)=C2)N

>  <Solvent>
DMSO Solution

>  <Batch No.>
277749

>  <Quantity>
10mM  * 50uL

>  <Pathway>
Cell Cycle/DNA Damage; Epigenetics

>  <Synonyms>


>  <Formula>
C14H12N2O3

>  <Research_Area>
Cancer

>  <Clinical_Information>
No Development Reported

>  <SUPPLIER>
MedChemExpress

$$$$
Untitled Document
  ChemDraw09012115292D

 32 34  0  0  0  0  0  0  0  0999 V2000
   -2.1433    0.0000    0.0000 C   0  0  0  0  0  0  0  0  0  0  0  0
   -2.8578   -0.4125    0.0000 C   0  0  0  0  0  0  0  0  0  0  0  0
   -2.8578   -1.2375    0.0000 C   0  0  0  0  0  0  0  0  0  0  0  0
   -2.1433    0.8250    0.0000 O   0  0  0  0  0  0  0  0  0  0  0  0
   -1.4289   -0.4125    0.0000 N   0  0  0  0  0  0  0  0  0  0  0  0
   -0.7145    0.0000    0.0000 C   0  0  0  0  0  0  0  0  0  0  0  0
   -0.0000   -0.4125    0.0000 C   0  0  0  0  0  0  0  0  0  0  0  0
    0.7145    0.0000    0.0000 C   0  0  0  0  0  0  0  0  0  0  0  0
    0.7145    0.8250    0.0000 C   0  0  0  0  0  0  0  0  0  0  0  0
   -0.0000    1.2375    0.0000 C   0  0  0  0  0  0  0  0  0  0  0  0
   -0.7145    0.8250    0.0000 C   0  0  0  0  0  0  0  0  0  0  0  0
    1.4289   -0.4125    0.0000 S   0  0  0  0  0  0  0  0  0  0  0  0
    1.8413    0.3020    0.0000 O   0  0  0  0  0  0  0  0  0  0  0  0
    1.0164   -1.1270    0.0000 O   0  0  0  0  0  0  0  0  0  0  0  0
    2.1433   -0.8250    0.0000 N   0  0  0  0  0  0  0  0  0  0  0  0
    2.8578   -0.4125    0.0000 C   0  0  0  0  0  0  0  0  0  0  0  0
    3.5723   -0.8250    0.0000 C   0  0  0  0  0  0  0  0  0  0  0  0
    4.2867   -0.4125    0.0000 C   0  0  0  0  0  0  0  0  0  0  0  0
    4.2867    0.4125    0.0000 C   0  0  0  0  0  0  0  0  0  0  0  0
    5.0012    0.8250    0.0000 C   0  0  0  0  0  0  0  0  0  0  0  0
    5.7156    0.4125    0.0000 C   0  0  0  0  0  0  0  0  0  0  0  0
    5.7156   -0.4125    0.0000 C   0  0  0  0  0  0  0  0  0  0  0  0
    5.0012   -0.8250    0.0000 N   0  0  0  0  0  0  0  0  0  0  0  0
    1.4289    1.2375    0.0000 C   0  0  0  0  0  0  0  0  0  0  0  0
   -5.0012    0.0000    0.0000 C   0  0  0  0  0  0  0  0  0  0  0  0
   -5.0012    0.8250    0.0000 C   0  0  0  0  0  0  0  0  0  0  0  0
   -4.2867    1.2375    0.0000 C   0  0  0  0  0  0  0  0  0  0  0  0
   -3.5723    0.8250    0.0000 C   0  0  0  0  0  0  0  0  0  0  0  0
   -3.5723    0.0000    0.0000 N   0  0  0  0  0  0  0  0  0  0  0  0
   -4.2867   -0.4125    0.0000 N   0  0  0  0  0  0  0  0  0  0  0  0
   -2.8578    1.2375    0.0000 O   0  0  0  0  0  0  0  0  0  0  0  0
   -5.7156    1.2375    0.0000 Cl  0  0  0  0  0  0  0  0  0  0  0  0
  1  2  1  0      
  2  3  1  6      
  1  4  2  0      
  1  5  1  0      
  6  7  1  0      
  7  8  2  0      
  8  9  1  0      
  9 10  2  0      
 10 11  1  0      
  6 11  2  0      
 12 13  2  0      
 12 14  2  0      
 12 15  1  0      
 16 17  1  0      
 18 19  1  0      
 19 20  2  0      
 20 21  1  0      
 21 22  2  0      
 22 23  1  0      
 18 23  2  0      
 17 18  1  0      
 15 16  1  0      
  8 12  1  0      
  9 24  1  0      
  5  6  1  0      
 25 26  1  0      
 26 27  2  0      
 27 28  1  0      
 28 29  1  0      
 29 30  1  0      
 25 30  2  0      
 28 31  2  0      
 26 32  1  0      
  2 29  1  0      
M  END

>  <RackCode>
HYCPK72334

>  <Cat. No.>
HY-132309

>  <Product Name>
BRD0639

>  <ROW>
N

>  <COLUMN>
10

>  <CAS No.>
2760881-74-9

>  <MWt>
475.95

>  <Target>
Histone Methyltransferase

>  <Saltdate>


>  <Smiles>
C[C@H](N1C(C=C(Cl)C=N1)=O)C(NC2=CC=C(C)C(S(=O)(NCCC3=NC=CC=C3)=O)=C2)=O

>  <Solvent>
DMSO Solution

>  <Batch No.>
122932

>  <Quantity>
10mM  * 50uL

>  <Pathway>
Epigenetics

>  <Synonyms>


>  <Formula>
C21H22ClN5O4S

>  <Research_Area>
Cancer

>  <Clinical_Information>
No Development Reported

>  <SUPPLIER>
MedChemExpress

$$$$
Untitled Document
  ChemDraw03021715222D

 22 22  0  0  0  0  0  0  0  0999 V2000
   -3.9295   -1.6500    0.0000 C   0  0  0  0  0  0  0  0  0  0  0  0
   -3.9295   -0.8250    0.0000 N   0  0  0  0  0  0  0  0  0  0  0  0
   -4.6440   -0.4125    0.0000 C   0  0  0  0  0  0  0  0  0  0  0  0
   -3.2150   -0.4125    0.0000 C   0  0  0  0  0  0  0  0  0  0  0  0
   -3.2150    0.4125    0.0000 C   0  0  0  0  0  0  0  0  0  0  0  0
   -2.5005    0.8250    0.0000 C   0  0  0  0  0  0  0  0  0  0  0  0
   -1.7861    0.4125    0.0000 C   0  0  0  0  0  0  0  0  0  0  0  0
   -1.0717    0.8250    0.0000 C   0  0  0  0  0  0  0  0  0  0  0  0
   -0.3572    0.4125    0.0000 C   0  0  0  0  0  0  0  0  0  0  0  0
   -0.3572   -0.4125    0.0000 C   0  0  0  0  0  0  0  0  0  0  0  0
    0.3572    0.8250    0.0000 C   0  0  0  0  0  0  0  0  0  0  0  0
    1.0717    0.4125    0.0000 C   0  0  0  0  0  0  0  0  0  0  0  0
    1.0717   -0.4125    0.0000 C   0  0  0  0  0  0  0  0  0  0  0  0
    1.7861    0.8250    0.0000 C   0  0  0  0  0  0  0  0  0  0  0  0
    2.5005    0.4125    0.0000 C   0  0  0  0  0  0  0  0  0  0  0  0
    3.2150    0.8250    0.0000 C   0  0  0  0  0  0  0  0  0  0  0  0
    3.9295    0.4125    0.0000 N   0  0  0  0  0  0  0  0  0  0  0  0
    4.6440    0.8250    0.0000 O   0  0  0  0  0  0  0  0  0  0  0  0
    3.2150    1.6500    0.0000 O   0  0  0  0  0  0  0  0  0  0  0  0
   -1.0717    1.6500    0.0000 O   0  0  0  0  0  0  0  0  0  0  0  0
   -1.7861   -0.4125    0.0000 C   0  0  0  0  0  0  0  0  0  0  0  0
   -2.5005   -0.8250    0.0000 C   0  0  0  0  0  0  0  0  0  0  0  0
  1  2  1  0      
  2  3  1  0      
  2  4  1  0      
  4  5  2  0      
  5  6  1  0      
  6  7  2  0      
  7  8  1  0      
  8  9  1  0      
  9 10  1  1      
  9 11  1  0      
 11 12  2  0      
 12 13  1  0      
 12 14  1  0      
 14 15  2  0      
 15 16  1  0      
 16 17  1  0      
 17 18  1  0      
 16 19  2  0      
  8 20  2  0      
  7 21  1  0      
 21 22  2  0      
  4 22  1  0      
M  END

>  <RackCode>
HYCPK72334

>  <Cat. No.>
HY-15144

>  <Product Name>
Trichostatin A

>  <ROW>
O

>  <COLUMN>
10

>  <CAS No.>
58880-19-6

>  <MWt>
302.37

>  <Target>
HDAC; Organoid

>  <Saltdate>
Free Base

>  <Smiles>
CN(C1=CC=C(C=C1)C([C@@H](/C=C(/C=C/C(NO)=O)C)C)=O)C

>  <Solvent>
DMSO Solution

>  <Batch No.>
315145

>  <Quantity>
10mM  * 50uL

>  <Pathway>
Cell Cycle/DNA Damage; Epigenetics; Stem Cell/Wnt

>  <Synonyms>
TSA

>  <Formula>
C17H22N2O3

>  <Research_Area>
Cancer

>  <Clinical_Information>
No Development Reported

>  <SUPPLIER>
MedChemExpress

$$$$
Untitled Document
  ChemDraw01071615172D

 26 28  0  0  0  0  0  0  0  0999 V2000
    2.5006    1.2368    0.0000 C   0  0  0  0  0  0  0  0  0  0  0  0
    1.0717    1.2368    0.0000 N   0  0  0  0  0  0  0  0  0  0  0  0
    1.7862    1.6493    0.0000 C   0  0  0  0  0  0  0  0  0  0  0  0
    2.5006    0.4118    0.0000 O   0  0  0  0  0  0  0  0  0  0  0  0
    3.2151    1.6493    0.0000 O   0  0  0  0  0  0  0  0  0  0  0  0
    0.3572    1.6493    0.0000 C   0  0  0  0  0  0  0  0  0  0  0  0
    0.3572    2.4743    0.0000 O   0  0  0  0  0  0  0  0  0  0  0  0
   -1.0717   -0.0007    0.0000 N   0  0  0  0  0  0  0  0  0  0  0  0
   -0.3572    0.4118    0.0000 C   0  0  0  0  0  0  0  0  0  0  0  0
   -0.3572    1.2368    0.0000 C   0  0  0  0  0  0  0  0  0  0  0  0
   -1.0717    1.6493    0.0000 C   0  0  0  0  0  0  0  0  0  0  0  0
   -1.7862    1.2368    0.0000 C   0  0  0  0  0  0  0  0  0  0  0  0
   -2.5006    1.6493    0.0000 C   0  0  0  0  0  0  0  0  0  0  0  0
   -3.2151    1.2368    0.0000 C   0  0  0  0  0  0  0  0  0  0  0  0
   -3.2151    0.4118    0.0000 C   0  0  0  0  0  0  0  0  0  0  0  0
   -2.5006   -0.0007    0.0000 C   0  0  0  0  0  0  0  0  0  0  0  0
   -1.7862    0.4118    0.0000 C   0  0  0  0  0  0  0  0  0  0  0  0
   -1.0717   -0.8257    0.0000 C   0  0  0  0  0  0  0  0  0  0  0  0
    0.3572   -0.0007    0.0000 O   0  0  0  0  0  0  0  0  0  0  0  0
   -1.0717    2.4743    0.0000 O   0  0  0  0  0  0  0  0  0  0  0  0
   -1.7837   -1.2368    0.0000 C   0  0  0  0  0  0  0  0  0  0  0  0
   -2.4982   -0.8243    0.0000 C   0  0  0  0  0  0  0  0  0  0  0  0
   -3.2126   -1.2368    0.0000 C   0  0  0  0  0  0  0  0  0  0  0  0
   -3.2126   -2.0618    0.0000 C   0  0  0  0  0  0  0  0  0  0  0  0
   -2.4982   -2.4743    0.0000 C   0  0  0  0  0  0  0  0  0  0  0  0
   -1.7837   -2.0618    0.0000 C   0  0  0  0  0  0  0  0  0  0  0  0
  2  3  1  0      
  1  3  1  0      
  1  4  2  0      
  1  5  1  0      
  6  7  2  0      
  8  9  1  0      
  9 10  1  0      
 10 11  2  0      
 11 12  1  0      
 12 13  1  0      
 13 14  2  0      
 14 15  1  0      
 15 16  2  0      
 16 17  1  0      
  8 17  1  0      
 12 17  2  0      
  8 18  1  0      
  9 19  2  0      
 11 20  1  0      
  6 10  1  0      
  2  6  1  0      
 18 21  1  0      
 21 22  2  0      
 22 23  1  0      
 23 24  2  0      
 24 25  1  0      
 25 26  2  0      
 26 21  1  0      
M  END

>  <RackCode>
HYCPK72334

>  <Cat. No.>
HY-15468

>  <Product Name>
IOX2

>  <ROW>
P

>  <COLUMN>
10

>  <CAS No.>
931398-72-0

>  <MWt>
352.34

>  <Target>
HIF/HIF Prolyl-Hydroxylase

>  <Saltdate>
Free Acid

>  <Smiles>
O=C(O)CNC(C1=C(O)C2=C(N(CC3=CC=CC=C3)C1=O)C=CC=C2)=O

>  <Solvent>
DMSO Solution

>  <Batch No.>
09152

>  <Quantity>
10mM  * 50uL

>  <Pathway>
Metabolic Enzyme/Protease

>  <Synonyms>


>  <Formula>
C19H16N2O5

>  <Research_Area>
Cancer

>  <Clinical_Information>
No Development Reported

>  <SUPPLIER>
MedChemExpress

$$$$
Untitled Document
  ChemDraw03261317262D

 20 22  0  0  0  0  0  0  0  0999 V2000
    2.6944   -1.7206    0.0000 O   0  0  0  0  0  0  0  0  0  0  0  0
    1.9407   -2.0561    0.0000 C   0  0  0  0  0  0  0  0  0  0  0  0
    1.2732   -1.5712    0.0000 C   0  0  0  0  0  0  0  0  0  0  0  0
    0.4886   -1.8262    0.0000 C   0  0  0  0  0  0  0  0  0  0  0  0
    0.2337   -2.6108    0.0000 O   0  0  0  0  0  0  0  0  0  0  0  0
    0.0037   -1.1587    0.0000 C   0  0  0  0  0  0  0  0  0  0  0  0
   -0.8213   -1.1587    0.0000 O   0  0  0  0  0  0  0  0  0  0  0  0
    0.4886   -0.4913    0.0000 C   0  0  0  0  0  0  0  0  0  0  0  0
    1.2732   -0.7462    0.0000 O   0  0  0  0  0  0  0  0  0  0  0  0
    0.2337    0.2933    0.0000 N   0  0  0  0  0  0  0  0  0  0  0  0
    0.7186    0.9608    0.0000 C   0  0  0  0  0  0  0  0  0  0  0  0
    0.2337    1.6282    0.0000 N   0  0  0  0  0  0  0  0  0  0  0  0
   -0.5509    1.3733    0.0000 C   0  0  0  0  0  0  0  0  0  0  0  0
   -1.2654    1.7858    0.0000 C   0  0  0  0  0  0  0  0  0  0  0  0
   -1.2654    2.6108    0.0000 N   0  0  0  0  0  0  0  0  0  0  0  0
   -1.9799    1.3733    0.0000 N   0  0  0  0  0  0  0  0  0  0  0  0
   -1.9799    0.5483    0.0000 C   0  0  0  0  0  0  0  0  0  0  0  0
   -1.2654    0.1358    0.0000 N   0  0  0  0  0  0  0  0  0  0  0  0
   -0.5509    0.5483    0.0000 C   0  0  0  0  0  0  0  0  0  0  0  0
   -2.6944    0.1358    0.0000 O   0  0  0  0  0  0  0  0  0  0  0  0
  1  2  1  0      
  3  2  1  6      
  3  4  1  0      
  4  5  1  1      
  4  6  1  0      
  6  7  1  1      
  6  8  1  0      
  8  9  1  0      
  3  9  1  0      
  8 10  1  6      
 10 11  1  0      
 11 12  2  0      
 12 13  1  0      
 13 14  1  0      
 14 15  1  0      
 14 16  2  0      
 16 17  1  0      
 17 18  1  0      
 18 19  1  0      
 13 19  2  0      
 10 19  1  0      
 17 20  2  0      
M  END

>  <RackCode>
HYCPK72334

>  <Cat. No.>
HY-N0071

>  <Product Name>
Crotonoside

>  <ROW>
A

>  <COLUMN>
11

>  <CAS No.>
1818-71-9

>  <MWt>
283.24

>  <Target>
FLT3; HDAC

>  <Saltdate>


>  <Smiles>
OC[C@@H]1[C@H]([C@H]([C@H](N2C=NC(C(N)=N3)=C2NC3=O)O1)O)O

>  <Solvent>
DMSO Solution

>  <Batch No.>
238301

>  <Quantity>
10mM  * 50uL

>  <Pathway>
Cell Cycle/DNA Damage; Epigenetics; Protein Tyrosine Kinase/RTK

>  <Synonyms>
Isoguanosine

>  <Formula>
C10H13N5O5

>  <Research_Area>
Cancer

>  <Clinical_Information>
No Development Reported

>  <SUPPLIER>
MedChemExpress

$$$$
Untitled Document
  ChemDraw11081817182D

 28 30  0  0  0  0  0  0  0  0999 V2000
   -3.2151   -0.4125    0.0000 N   0  0  0  0  0  0  0  0  0  0  0  0
   -2.5006    0.0000    0.0000 C   0  0  0  0  0  0  0  0  0  0  0  0
   -1.7862    0.4125    0.0000 C   0  0  0  0  0  0  0  0  0  0  0  0
   -1.7862    1.2375    0.0000 C   0  0  0  0  0  0  0  0  0  0  0  0
   -2.5006    1.6500    0.0000 C   0  0  0  0  0  0  0  0  0  0  0  0
   -2.5006    2.4750    0.0000 C   0  0  0  0  0  0  0  0  0  0  0  0
   -1.7862    2.8875    0.0000 C   0  0  0  0  0  0  0  0  0  0  0  0
   -1.0717    2.4750    0.0000 C   0  0  0  0  0  0  0  0  0  0  0  0
   -0.3572    2.8875    0.0000 Cl  0  0  0  0  0  0  0  0  0  0  0  0
   -1.0717    1.6500    0.0000 C   0  0  0  0  0  0  0  0  0  0  0  0
   -1.0717    0.0000    0.0000 C   0  0  0  0  0  0  0  0  0  0  0  0
   -0.3572    0.4125    0.0000 N   0  0  0  0  0  0  0  0  0  0  0  0
    0.3572    0.0000    0.0000 C   0  0  0  0  0  0  0  0  0  0  0  0
    1.0717    0.4125    0.0000 N   0  0  0  0  0  0  0  0  0  0  0  0
    1.7862    0.0000    0.0000 C   0  0  0  0  0  0  0  0  0  0  0  0
    2.5006    0.4125    0.0000 C   0  0  0  0  0  0  0  0  0  0  0  0
    3.2151    0.8250    0.0000 F   0  0  0  0  0  0  0  0  0  0  0  0
    2.5006    1.2375    0.0000 F   0  0  0  0  0  0  0  0  0  0  0  0
    3.2151    0.0000    0.0000 F   0  0  0  0  0  0  0  0  0  0  0  0
    1.7862   -0.8250    0.0000 C   0  0  0  0  0  0  0  0  0  0  0  0
    1.0717   -1.2375    0.0000 C   0  0  0  0  0  0  0  0  0  0  0  0
    1.0717   -2.0625    0.0000 C   0  0  0  0  0  0  0  0  0  0  0  0
    0.3572   -2.4750    0.0000 F   0  0  0  0  0  0  0  0  0  0  0  0
    1.0717   -2.8875    0.0000 F   0  0  0  0  0  0  0  0  0  0  0  0
    1.7862   -2.4750    0.0000 F   0  0  0  0  0  0  0  0  0  0  0  0
    0.3572   -0.8250    0.0000 C   0  0  0  0  0  0  0  0  0  0  0  0
   -0.3572   -1.2375    0.0000 C   0  0  0  0  0  0  0  0  0  0  0  0
   -1.0717   -0.8250    0.0000 C   0  0  0  0  0  0  0  0  0  0  0  0
  1  2  3  0      
  2  3  1  0      
  3  4  1  0      
  4  5  2  0      
  5  6  1  0      
  6  7  2  0      
  7  8  1  0      
  8  9  1  0      
  8 10  2  0      
  4 10  1  0      
  3 11  1  0      
 11 12  2  0      
 12 13  1  0      
 13 14  2  0      
 14 15  1  0      
 15 16  1  0      
 16 17  1  0      
 16 18  1  0      
 16 19  1  0      
 15 20  2  0      
 20 21  1  0      
 21 22  1  0      
 22 23  1  0      
 22 24  1  0      
 22 25  1  0      
 21 26  2  0      
 13 26  1  0      
 26 27  1  0      
 27 28  2  0      
 11 28  1  0      
M  END

>  <RackCode>
HYCPK72334

>  <Cat. No.>
HY-119137

>  <Product Name>
AMDE-1

>  <ROW>
B

>  <COLUMN>
11

>  <CAS No.>
478043-30-0

>  <MWt>
415.72

>  <Target>
AMPK; Autophagy

>  <Saltdate>


>  <Smiles>
N#CC(C1=NC2=NC(C(F)(F)F)=CC(C(F)(F)F)=C2C=C1)C3=CC=CC(Cl)=C3

>  <Solvent>
DMSO Solution

>  <Batch No.>
416449

>  <Quantity>
10mM  * 50uL

>  <Pathway>
Autophagy; Epigenetics; PI3K/Akt/mTOR

>  <Synonyms>


>  <Formula>
C18H8ClF6N3

>  <Research_Area>
Cancer

>  <Clinical_Information>
No Development Reported

>  <SUPPLIER>
MedChemExpress

$$$$
Untitled Document
  ChemDraw01272212402D

 24 27  0  0  0  0  0  0  0  0999 V2000
   -2.5006   -0.0835    0.0000 C   0  0  0  0  0  0  0  0  0  0  0  0
   -2.5006   -0.9085    0.0000 C   0  0  0  0  0  0  0  0  0  0  0  0
   -1.7862   -1.3210    0.0000 C   0  0  0  0  0  0  0  0  0  0  0  0
   -1.0717   -0.9085    0.0000 C   0  0  0  0  0  0  0  0  0  0  0  0
   -1.0717   -0.0835    0.0000 C   0  0  0  0  0  0  0  0  0  0  0  0
   -1.7862    0.3290    0.0000 C   0  0  0  0  0  0  0  0  0  0  0  0
   -0.3572   -1.3210    0.0000 C   0  0  0  0  0  0  0  0  0  0  0  0
    0.3572   -0.9085    0.0000 N   0  0  0  0  0  0  0  0  0  0  0  0
    0.3572   -0.0835    0.0000 N   0  0  0  0  0  0  0  0  0  0  0  0
   -0.3572    0.3290    0.0000 C   0  0  0  0  0  0  0  0  0  0  0  0
    1.0717   -1.3210    0.0000 C   0  0  0  0  0  0  0  0  0  0  0  0
    1.0717   -2.1460    0.0000 C   0  0  0  0  0  0  0  0  0  0  0  0
    1.7862   -2.5585    0.0000 C   0  0  0  0  0  0  0  0  0  0  0  0
    2.5006   -2.1460    0.0000 C   0  0  0  0  0  0  0  0  0  0  0  0
    2.5006   -1.3210    0.0000 C   0  0  0  0  0  0  0  0  0  0  0  0
    1.7862   -0.9085    0.0000 C   0  0  0  0  0  0  0  0  0  0  0  0
   -0.3572   -2.1460    0.0000 O   0  0  0  0  0  0  0  0  0  0  0  0
   -0.3572    1.1540    0.0000 N   0  0  0  0  0  0  0  0  0  0  0  0
    0.3572    1.5665    0.0000 C   0  0  0  0  0  0  0  0  0  0  0  0
    1.1109    1.2309    0.0000 C   0  0  0  0  0  0  0  0  0  0  0  0
    1.6629    1.8440    0.0000 C   0  0  0  0  0  0  0  0  0  0  0  0
    1.2504    2.5585    0.0000 N   0  0  0  0  0  0  0  0  0  0  0  0
    0.4435    2.3870    0.0000 N   0  0  0  0  0  0  0  0  0  0  0  0
    2.4834    1.7578    0.0000 C   0  0  0  0  0  0  0  0  0  0  0  0
  1  2  2  0      
  2  3  1  0      
  3  4  2  0      
  4  5  1  0      
  5  6  2  0      
  6  1  1  0      
  4  7  1  0      
  7  8  1  0      
  8  9  1  0      
  9 10  2  0      
 10  5  1  0      
  8 11  1  0      
 11 12  2  0      
 12 13  1  0      
 13 14  2  0      
 14 15  1  0      
 15 16  2  0      
 16 11  1  0      
  7 17  2  0      
 10 18  1  0      
 18 19  1  0      
 19 20  1  0      
 20 21  2  0      
 21 22  1  0      
 22 23  1  0      
 23 19  2  0      
 21 24  1  0      
M  END

>  <RackCode>
HYCPK72334

>  <Cat. No.>
HY-12564

>  <Product Name>
Phthalazinone pyrazole

>  <ROW>
C

>  <COLUMN>
11

>  <CAS No.>
880487-62-7

>  <MWt>
317.34

>  <Target>
Apoptosis; Aurora Kinase

>  <Saltdate>


>  <Smiles>
O=C1C2=CC=CC=C2C(NC3=NNC(C)=C3)=NN1C4=CC=CC=C4

>  <Solvent>
DMSO Solution

>  <Batch No.>
154062

>  <Quantity>
10mM  * 50uL

>  <Pathway>
Apoptosis; Cell Cycle/DNA Damage; Epigenetics

>  <Synonyms>


>  <Formula>
C18H15N5O

>  <Research_Area>
Cancer

>  <Clinical_Information>
No Development Reported

>  <SUPPLIER>
MedChemExpress

$$$$
Untitled Document
  ChemDraw03141709132D

 27 30  0  0  0  0  0  0  0  0999 V2000
    0.6479    0.3391    0.0000 C   0  0  0  0  0  0  0  0  0  0  0  0
    1.0603   -0.3754    0.0000 C   0  0  0  0  0  0  0  0  0  0  0  0
    1.8854   -0.3754    0.0000 C   0  0  0  0  0  0  0  0  0  0  0  0
    2.2978    0.3391    0.0000 C   0  0  0  0  0  0  0  0  0  0  0  0
    1.8854    1.0536    0.0000 C   0  0  0  0  0  0  0  0  0  0  0  0
    1.0603    1.0536    0.0000 C   0  0  0  0  0  0  0  0  0  0  0  0
   -0.1772    0.3391    0.0000 N   0  0  0  0  0  0  0  0  0  0  0  0
   -0.5898   -0.3754    0.0000 N   0  0  0  0  0  0  0  0  0  0  0  0
   -1.4147   -0.3754    0.0000 C   0  0  0  0  0  0  0  0  0  0  0  0
   -1.8996    0.2920    0.0000 C   0  0  0  0  0  0  0  0  0  0  0  0
   -2.6843    0.0371    0.0000 N   0  0  0  0  0  0  0  0  0  0  0  0
   -2.6843   -0.7878    0.0000 N   0  0  0  0  0  0  0  0  0  0  0  0
   -1.8996   -1.0428    0.0000 C   0  0  0  0  0  0  0  0  0  0  0  0
   -1.6447    1.0767    0.0000 O   0  0  0  0  0  0  0  0  0  0  0  0
   -1.6447   -1.8275    0.0000 C   0  0  0  0  0  0  0  0  0  0  0  0
   -3.3517    0.5220    0.0000 C   0  0  0  0  0  0  0  0  0  0  0  0
   -3.2655    1.3426    0.0000 C   0  0  0  0  0  0  0  0  0  0  0  0
   -3.9329    1.8275    0.0000 C   0  0  0  0  0  0  0  0  0  0  0  0
   -4.6867    1.4919    0.0000 C   0  0  0  0  0  0  0  0  0  0  0  0
   -4.7729    0.6714    0.0000 C   0  0  0  0  0  0  0  0  0  0  0  0
   -4.1054    0.1865    0.0000 C   0  0  0  0  0  0  0  0  0  0  0  0
    3.1229    0.3391    0.0000 N   0  0  0  0  0  0  0  0  0  0  0  0
    3.5353   -0.3754    0.0000 C   0  0  0  0  0  0  0  0  0  0  0  0
    4.3604   -0.3754    0.0000 C   0  0  0  0  0  0  0  0  0  0  0  0
    4.7729    0.3391    0.0000 O   0  0  0  0  0  0  0  0  0  0  0  0
    4.3604    1.0536    0.0000 C   0  0  0  0  0  0  0  0  0  0  0  0
    3.5353    1.0536    0.0000 C   0  0  0  0  0  0  0  0  0  0  0  0
  1  2  2  0      
  2  3  1  0      
  3  4  2  0      
  4  5  1  0      
  5  6  2  0      
  6  1  1  0      
  1  7  1  0      
  7  8  1  0      
  8  9  2  0      
  9 10  1  0      
 10 11  1  0      
 11 12  1  0      
 12 13  2  0      
 13  9  1  0      
 10 14  2  0      
 13 15  1  0      
 11 16  1  0      
 16 17  2  0      
 17 18  1  0      
 18 19  2  0      
 19 20  1  0      
 20 21  2  0      
 21 16  1  0      
  4 22  1  0      
 22 23  1  0      
 23 24  1  0      
 24 25  1  0      
 25 26  1  0      
 26 27  1  0      
 27 22  1  0      
M  END

>  <RackCode>
HYCPK72334

>  <Cat. No.>
HY-101028

>  <Product Name>
ZINC13466751

>  <ROW>
D

>  <COLUMN>
11

>  <CAS No.>
117953-17-0

>  <MWt>
363.41

>  <Target>
HIF/HIF Prolyl-Hydroxylase

>  <Saltdate>
Free Base

>  <Smiles>
O=C(N(C1=CC=CC=C1)N=C/2C)C2=N/NC3=CC=C(N4CCOCC4)C=C3

>  <Solvent>
DMSO Solution

>  <Batch No.>
78636

>  <Quantity>
10mM  * 50uL

>  <Pathway>
Metabolic Enzyme/Protease

>  <Synonyms>


>  <Formula>
C20H21N5O2

>  <Research_Area>
Cancer; Cardiovascular Disease

>  <Clinical_Information>
No Development Reported

>  <SUPPLIER>
MedChemExpress

$$$$
Untitled Document
  ChemDraw09301612472D

 34 36  0  0  0  0  0  0  0  0999 V2000
   -0.1371   -3.4936    0.0000 C   0  0  0  0  0  0  0  0  0  0  0  0
    0.2753   -4.2080    0.0000 C   0  0  0  0  0  0  0  0  0  0  0  0
   -0.9621   -3.4936    0.0000 N   0  0  0  0  0  0  0  0  0  0  0  0
    1.1004   -4.2080    0.0000 N   0  0  0  0  0  0  0  0  0  0  0  0
   -1.3745   -2.7791    0.0000 C   0  0  0  0  0  0  0  0  0  0  0  0
   -3.4692   -3.1916    0.0000 N   0  0  0  0  0  0  0  0  0  0  0  0
   -3.4692   -2.3667    0.0000 N   0  0  0  0  0  0  0  0  0  0  0  0
   -2.6846   -2.1116    0.0000 C   0  0  0  0  0  0  0  0  0  0  0  0
   -2.1996   -2.7791    0.0000 C   0  0  0  0  0  0  0  0  0  0  0  0
   -2.6846   -3.4466    0.0000 C   0  0  0  0  0  0  0  0  0  0  0  0
   -2.4297   -1.3270    0.0000 C   0  0  0  0  0  0  0  0  0  0  0  0
   -1.6226   -1.1555    0.0000 C   0  0  0  0  0  0  0  0  0  0  0  0
   -1.3676   -0.3709    0.0000 C   0  0  0  0  0  0  0  0  0  0  0  0
   -1.9197    0.2422    0.0000 C   0  0  0  0  0  0  0  0  0  0  0  0
   -2.7267    0.0707    0.0000 C   0  0  0  0  0  0  0  0  0  0  0  0
   -2.9817   -0.7139    0.0000 C   0  0  0  0  0  0  0  0  0  0  0  0
   -1.6647    1.0268    0.0000 O   0  0  0  0  0  0  0  0  0  0  0  0
   -0.8578    1.1983    0.0000 C   0  0  0  0  0  0  0  0  0  0  0  0
   -0.1659    0.7490    0.0000 C   0  0  0  0  0  0  0  0  0  0  0  0
    0.2834    1.4409    0.0000 C   0  0  0  0  0  0  0  0  0  0  0  0
   -0.4085    1.8902    0.0000 C   0  0  0  0  0  0  0  0  0  0  0  0
    1.0904    1.6125    0.0000 O   0  0  0  0  0  0  0  0  0  0  0  0
    1.3453    2.3972    0.0000 C   0  0  0  0  0  0  0  0  0  0  0  0
    2.1522    2.5687    0.0000 C   0  0  0  0  0  0  0  0  0  0  0  0
    2.1101    4.7510    0.0000 C   0  0  0  0  0  0  0  0  0  0  0  0
    1.8552    3.9664    0.0000 C   0  0  0  0  0  0  0  0  0  0  0  0
    2.4073    3.3533    0.0000 C   0  0  0  0  0  0  0  0  0  0  0  0
    3.2143    3.5248    0.0000 C   0  0  0  0  0  0  0  0  0  0  0  0
    3.4692    4.3094    0.0000 C   0  0  0  0  0  0  0  0  0  0  0  0
    2.9172    4.9225    0.0000 O   0  0  0  0  0  0  0  0  0  0  0  0
    1.5128   -4.9225    0.0000 C   0  0  0  0  0  0  0  0  0  0  0  0
   -1.3745   -4.2080    0.0000 C   0  0  0  0  0  0  0  0  0  0  0  0
    1.2694   -0.8026    0.0000 Cl  0  0  0  0  0  0  0  0  0  0  0  0
    0.4444   -0.8026    0.0000 H   0  0  0  0  0  0  0  0  0  0  0  0
  1  2  1  0      
  1  3  1  0      
  2  4  1  0      
  6  7  1  0      
  7  8  2  0      
  8  9  1  0      
  9 10  2  0      
  6 10  1  0      
 11 12  1  0      
 12 13  2  0      
 13 14  1  0      
 14 15  2  0      
 15 16  1  0      
 11 16  2  0      
 18 19  1  0      
 19 20  1  0      
 20 21  1  0      
 18 21  1  0      
 23 24  1  0      
 22 23  1  0      
 25 26  1  0      
 26 27  1  0      
 27 28  1  0      
 28 29  1  0      
 29 30  1  0      
 25 30  1  0      
 24 27  1  0      
 20 22  1  1      
 18 17  1  6      
 14 17  1  0      
  8 11  1  0      
  5  9  1  0      
  3  5  1  0      
  4 31  1  0      
  3 32  1  0      
 33 34  1  0      
M  END

>  <RackCode>
HYCPK72334

>  <Cat. No.>
HY-12970A

>  <Product Name>
EPZ020411 (hydrochloride)

>  <ROW>
E

>  <COLUMN>
11

>  <CAS No.>
2070015-25-5

>  <MWt>
479.06

>  <Target>
Apoptosis; Histone Methyltransferase

>  <Saltdate>
Hydrochloride

>  <Smiles>
CNCCN(C)CC1=CNN=C1C2=CC=C(O[C@H]3C[C@H](OCCC4CCOCC4)C3)C=C2.Cl[H]

>  <Solvent>
DMSO Solution

>  <Batch No.>
20125

>  <Quantity>
10mM  * 50uL

>  <Pathway>
Apoptosis; Epigenetics

>  <Synonyms>


>  <Formula>
C25H39ClN4O3

>  <Research_Area>
Cancer

>  <Clinical_Information>
No Development Reported

>  <SUPPLIER>
MedChemExpress

$$$$
Untitled Document
  ChemDraw03081614192D

 38 41  0  0  0  0  0  0  0  0999 V2000
   -1.1716   -1.2093    0.0000 N   0  0  0  0  0  0  0  0  0  0  0  0
   -0.4554   -1.6218    0.0000 C   0  0  0  0  0  0  0  0  0  0  0  0
   -0.4554   -2.4468    0.0000 C   0  0  0  0  0  0  0  0  0  0  0  0
   -1.1716   -2.8593    0.0000 N   0  0  0  0  0  0  0  0  0  0  0  0
   -1.8820   -2.4468    0.0000 C   0  0  0  0  0  0  0  0  0  0  0  0
   -2.5982   -2.8593    0.0000 C   0  0  0  0  0  0  0  0  0  0  0  0
   -3.3143   -2.4468    0.0000 C   0  0  0  0  0  0  0  0  0  0  0  0
   -3.3143   -1.6218    0.0000 C   0  0  0  0  0  0  0  0  0  0  0  0
   -2.5982   -1.2093    0.0000 C   0  0  0  0  0  0  0  0  0  0  0  0
   -1.8820   -1.6218    0.0000 C   0  0  0  0  0  0  0  0  0  0  0  0
    1.5669   -0.9287    0.0000 N   0  0  0  0  0  0  0  0  0  0  0  0
    1.1544   -0.2182    0.0000 N   0  0  0  0  0  0  0  0  0  0  0  0
    0.3466   -0.3901    0.0000 C   0  0  0  0  0  0  0  0  0  0  0  0
    0.2607   -1.2093    0.0000 C   0  0  0  0  0  0  0  0  0  0  0  0
    1.0112   -1.5416    0.0000 C   0  0  0  0  0  0  0  0  0  0  0  0
    4.0248   -1.1921    0.0000 N   0  0  0  0  0  0  0  0  0  0  0  0
    3.5435   -1.8568    0.0000 C   0  0  0  0  0  0  0  0  0  0  0  0
    2.7243   -1.7708    0.0000 C   0  0  0  0  0  0  0  0  0  0  0  0
    2.3862   -1.0146    0.0000 C   0  0  0  0  0  0  0  0  0  0  0  0
    2.8732   -0.3499    0.0000 C   0  0  0  0  0  0  0  0  0  0  0  0
    3.6924   -0.4359    0.0000 C   0  0  0  0  0  0  0  0  0  0  0  0
   -2.5982   -0.3843    0.0000 C   0  0  0  0  0  0  0  0  0  0  0  0
   -3.3143    0.0282    0.0000 C   0  0  0  0  0  0  0  0  0  0  0  0
   -3.3143    0.8532    0.0000 C   0  0  0  0  0  0  0  0  0  0  0  0
   -2.5982    1.2657    0.0000 C   0  0  0  0  0  0  0  0  0  0  0  0
   -1.8820    0.8532    0.0000 C   0  0  0  0  0  0  0  0  0  0  0  0
   -1.8820    0.0282    0.0000 C   0  0  0  0  0  0  0  0  0  0  0  0
   -2.5982    2.0907    0.0000 C   0  0  0  0  0  0  0  0  0  0  0  0
   -1.8820    2.5032    0.0000 N   0  0  0  0  0  0  0  0  0  0  0  0
   -1.8820    3.3282    0.0000 C   0  0  0  0  0  0  0  0  0  0  0  0
   -1.1716    3.7407    0.0000 C   0  0  0  0  0  0  0  0  0  0  0  0
   -0.4554    3.3282    0.0000 O   0  0  0  0  0  0  0  0  0  0  0  0
   -0.4554    2.5032    0.0000 C   0  0  0  0  0  0  0  0  0  0  0  0
   -1.1716    2.0907    0.0000 C   0  0  0  0  0  0  0  0  0  0  0  0
   -1.1716    1.2657    0.0000 F   0  0  0  0  0  0  0  0  0  0  0  0
   -4.0248    1.2657    0.0000 F   0  0  0  0  0  0  0  0  0  0  0  0
    1.3090   -3.7407    0.0000 Cl  0  0  0  0  0  0  0  0  0  0  0  0
    2.9765   -3.6956    0.0000 Cl  0  0  0  0  0  0  0  0  0  0  0  0
  1  2  2  0      
  2  3  1  0      
  3  4  2  0      
  4  5  1  0      
  5  6  2  0      
  6  7  1  0      
  7  8  2  0      
  8  9  1  0      
  9 10  2  0      
  1 10  1  0      
  5 10  1  0      
 11 12  1  0      
 12 13  2  0      
 13 14  1  0      
 14 15  2  0      
 11 15  1  0      
 16 17  1  0      
 17 18  1  0      
 18 19  1  0      
 19 20  1  0      
 20 21  1  0      
 16 21  1  0      
 11 19  1  0      
  2 14  1  0      
 22 23  1  0      
 23 24  2  0      
 24 25  1  0      
 25 26  2  0      
 26 27  1  0      
 22 27  2  0      
 29 30  1  0      
 30 31  1  0      
 31 32  1  0      
 32 33  1  0      
 33 34  1  0      
 29 34  1  0      
 28 29  1  0      
 25 28  1  0      
 26 35  1  0      
 24 36  1  0      
  9 22  1  0      
M  END

>  <RackCode>
HYCPK72334

>  <Cat. No.>
HY-14722A

>  <Product Name>
NVP-BSK805 (dihydrochloride)

>  <ROW>
F

>  <COLUMN>
11

>  <CAS No.>
1942919-79-0

>  <MWt>
563.47

>  <Target>
JAK

>  <Saltdate>
Hydrochloride

>  <Smiles>
FC1=C(CN2CCOCC2)C(F)=CC(C3=C4N=C(C5=CN(C6CCNCC6)N=C5)C=NC4=CC=C3)=C1.Cl.Cl

>  <Solvent>
DMSO Solution

>  <Batch No.>
427594

>  <Quantity>
10mM  * 50uL

>  <Pathway>
Epigenetics; JAK/STAT Signaling; Protein Tyrosine Kinase/RTK; Stem Cell/Wnt

>  <Synonyms>


>  <Formula>
C27H30Cl2F2N6O

>  <Research_Area>
Cancer

>  <Clinical_Information>
No Development Reported

>  <SUPPLIER>
MedChemExpress

$$$$
Untitled Document
  ChemDraw12191609412D

 32 36  0  0  0  0  0  0  0  0999 V2000
   -1.7862    1.4438    0.0000 N   0  0  0  0  0  0  0  0  0  0  0  0
   -2.5006    1.0313    0.0000 N   0  0  0  0  0  0  0  0  0  0  0  0
   -2.5006    0.2062    0.0000 C   0  0  0  0  0  0  0  0  0  0  0  0
   -1.7862   -0.2062    0.0000 N   0  0  0  0  0  0  0  0  0  0  0  0
   -1.0717    0.2062    0.0000 C   0  0  0  0  0  0  0  0  0  0  0  0
   -1.0717    1.0313    0.0000 C   0  0  0  0  0  0  0  0  0  0  0  0
   -0.3572   -0.2062    0.0000 N   0  0  0  0  0  0  0  0  0  0  0  0
   -3.2151   -0.2062    0.0000 C   0  0  0  0  0  0  0  0  0  0  0  0
   -3.2151   -1.0313    0.0000 C   0  0  0  0  0  0  0  0  0  0  0  0
   -3.9296   -1.4438    0.0000 C   0  0  0  0  0  0  0  0  0  0  0  0
   -4.6441   -1.0313    0.0000 C   0  0  0  0  0  0  0  0  0  0  0  0
   -4.6441   -0.2062    0.0000 C   0  0  0  0  0  0  0  0  0  0  0  0
   -3.9296    0.2062    0.0000 N   0  0  0  0  0  0  0  0  0  0  0  0
   -0.3572    1.4438    0.0000 C   0  0  0  0  0  0  0  0  0  0  0  0
   -0.3572    2.2688    0.0000 C   0  0  0  0  0  0  0  0  0  0  0  0
    0.3572    2.6813    0.0000 C   0  0  0  0  0  0  0  0  0  0  0  0
    1.0717    2.2688    0.0000 C   0  0  0  0  0  0  0  0  0  0  0  0
    1.0717    1.4438    0.0000 C   0  0  0  0  0  0  0  0  0  0  0  0
    0.3572    1.0313    0.0000 C   0  0  0  0  0  0  0  0  0  0  0  0
    0.3572    0.2062    0.0000 C   0  0  0  0  0  0  0  0  0  0  0  0
    2.5006   -1.0313    0.0000 C   0  0  0  0  0  0  0  0  0  0  0  0
    1.7862   -1.4438    0.0000 C   0  0  0  0  0  0  0  0  0  0  0  0
    1.0717   -1.0313    0.0000 C   0  0  0  0  0  0  0  0  0  0  0  0
    1.0717   -0.2062    0.0000 C   0  0  0  0  0  0  0  0  0  0  0  0
    1.7862    0.2062    0.0000 C   0  0  0  0  0  0  0  0  0  0  0  0
    2.5006   -0.2062    0.0000 C   0  0  0  0  0  0  0  0  0  0  0  0
    3.2151   -1.4438    0.0000 C   0  0  0  0  0  0  0  0  0  0  0  0
    3.9296   -1.0313    0.0000 C   0  0  0  0  0  0  0  0  0  0  0  0
    4.6441   -1.4438    0.0000 C   0  0  0  0  0  0  0  0  0  0  0  0
    4.6441   -2.2688    0.0000 C   0  0  0  0  0  0  0  0  0  0  0  0
    3.9296   -2.6813    0.0000 C   0  0  0  0  0  0  0  0  0  0  0  0
    3.2151   -2.2688    0.0000 C   0  0  0  0  0  0  0  0  0  0  0  0
  1  2  2  0      
  2  3  1  0      
  3  4  2  0      
  4  5  1  0      
  5  6  2  0      
  1  6  1  0      
  5  7  1  0      
  8  9  1  0      
  9 10  2  0      
 10 11  1  0      
 11 12  2  0      
 12 13  1  0      
  8 13  2  0      
  3  8  1  0      
 14 15  1  0      
 15 16  2  0      
 16 17  1  0      
 17 18  2  0      
 18 19  1  0      
 14 19  2  0      
  6 14  1  0      
 21 22  1  0      
 22 23  2  0      
 23 24  1  0      
 24 25  2  0      
 25 26  1  0      
 21 26  2  0      
 27 28  1  0      
 28 29  2  0      
 29 30  1  0      
 30 31  2  0      
 31 32  1  0      
 27 32  2  0      
 21 27  1  0      
 20 24  1  0      
  7 20  1  0      
M  END

>  <RackCode>
HYCPK72334

>  <Cat. No.>
HY-12754

>  <Product Name>
ML228

>  <ROW>
G

>  <COLUMN>
11

>  <CAS No.>
1357171-62-0

>  <MWt>
415.49

>  <Target>
HIF/HIF Prolyl-Hydroxylase

>  <Saltdate>
Free Base

>  <Smiles>
C1(C2=NC=CC=C2)=NC(NCC3=CC=C(C4=CC=CC=C4)C=C3)=C(C5=CC=CC=C5)N=N1

>  <Solvent>
DMSO Solution

>  <Batch No.>
22820

>  <Quantity>
10mM  * 50uL

>  <Pathway>
Metabolic Enzyme/Protease

>  <Synonyms>
CID-46742353

>  <Formula>
C27H21N5

>  <Research_Area>
Cancer

>  <Clinical_Information>
No Development Reported

>  <SUPPLIER>
MedChemExpress

$$$$
Untitled Document
  ChemDraw01122310002D

 36 40  0  0  0  0  0  0  0  0999 V2000
    0.3806    3.0005    0.0000 C   0  0  0  0  0  0  0  0  0  0  0  0
   -0.4444    3.0005    0.0000 O   0  0  0  0  0  0  0  0  0  0  0  0
   -0.8569    2.2860    0.0000 C   0  0  0  0  0  0  0  0  0  0  0  0
   -1.6819    2.2860    0.0000 C   0  0  0  0  0  0  0  0  0  0  0  0
   -2.0944    1.5716    0.0000 C   0  0  0  0  0  0  0  0  0  0  0  0
   -1.6819    0.8571    0.0000 C   0  0  0  0  0  0  0  0  0  0  0  0
   -2.0944    0.1426    0.0000 C   0  0  0  0  0  0  0  0  0  0  0  0
   -1.3098   -0.1123    0.0000 C   0  0  0  0  0  0  0  0  0  0  0  0
   -0.6967    0.4397    0.0000 O   0  0  0  0  0  0  0  0  0  0  0  0
   -1.1382   -0.9193    0.0000 N   0  0  0  0  0  0  0  0  0  0  0  0
   -1.6903   -1.5324    0.0000 C   0  0  0  0  0  0  0  0  0  0  0  0
   -1.2778   -2.2468    0.0000 C   0  0  0  0  0  0  0  0  0  0  0  0
   -1.6133   -3.0005    0.0000 F   0  0  0  0  0  0  0  0  0  0  0  0
   -0.4708   -2.0753    0.0000 C   0  0  0  0  0  0  0  0  0  0  0  0
   -0.3846   -1.2548    0.0000 C   0  0  0  0  0  0  0  0  0  0  0  0
    0.3299   -0.8423    0.0000 C   0  0  0  0  0  0  0  0  0  0  0  0
    0.3299   -0.0173    0.0000 O   0  0  0  0  0  0  0  0  0  0  0  0
    1.0444   -1.2548    0.0000 N   0  0  0  0  0  0  0  0  0  0  0  0
    1.7589   -0.8423    0.0000 C   0  0  0  0  0  0  0  0  0  0  0  0
    2.4733   -1.2548    0.0000 N   0  0  0  0  0  0  0  0  0  0  0  0
    3.1878   -0.8423    0.0000 C   0  0  0  0  0  0  0  0  0  0  0  0
    3.1878   -0.0173    0.0000 C   0  0  0  0  0  0  0  0  0  0  0  0
    2.4733    0.3952    0.0000 C   0  0  0  0  0  0  0  0  0  0  0  0
    1.7589   -0.0173    0.0000 C   0  0  0  0  0  0  0  0  0  0  0  0
    3.9724    0.2376    0.0000 N   0  0  0  0  0  0  0  0  0  0  0  0
    4.4573   -0.4298    0.0000 N   0  0  0  0  0  0  0  0  0  0  0  0
    3.9724   -1.0973    0.0000 C   0  0  0  0  0  0  0  0  0  0  0  0
   -2.2376   -0.6698    0.0000 C   0  0  0  0  0  0  0  0  0  0  0  0
   -3.0129   -0.9520    0.0000 C   0  0  0  0  0  0  0  0  0  0  0  0
   -3.6449   -0.4217    0.0000 C   0  0  0  0  0  0  0  0  0  0  0  0
   -4.4573   -0.2784    0.0000 F   0  0  0  0  0  0  0  0  0  0  0  0
   -4.1752   -1.0537    0.0000 F   0  0  0  0  0  0  0  0  0  0  0  0
   -3.5016    0.3908    0.0000 C   0  0  0  0  0  0  0  0  0  0  0  0
   -2.7264    0.6729    0.0000 C   0  0  0  0  0  0  0  0  0  0  0  0
   -0.8569    0.8571    0.0000 C   0  0  0  0  0  0  0  0  0  0  0  0
   -0.4444    1.5716    0.0000 C   0  0  0  0  0  0  0  0  0  0  0  0
  1  2  1  0      
  2  3  1  0      
  3  4  2  0      
  4  5  1  0      
  5  6  2  0      
  6  7  1  0      
  7  8  1  0      
  8  9  2  0      
  8 10  1  0      
 10 11  1  0      
 11 12  1  0      
 12 13  1  1      
 12 14  1  0      
 14 15  1  0      
 10 15  1  0      
 15 16  1  1      
 16 17  2  0      
 16 18  1  0      
 18 19  1  0      
 19 20  2  0      
 20 21  1  0      
 21 22  2  0      
 22 23  1  0      
 23 24  2  0      
 19 24  1  0      
 22 25  1  0      
 25 26  1  0      
 26 27  2  0      
 21 27  1  0      
  7 28  1  0      
 28 29  1  0      
 29 30  1  0      
 30 31  1  0      
 30 32  1  0      
 30 33  1  0      
 33 34  1  0      
  7 34  1  0      
  6 35  1  0      
 35 36  2  0      
  3 36  1  0      
M  END

>  <RackCode>
HYCPK72334

>  <Cat. No.>
HY-152241

>  <Product Name>
DS-9300

>  <ROW>
H

>  <COLUMN>
11

>  <CAS No.>
2259641-46-6

>  <MWt>
501.50

>  <Target>
Histone Acetyltransferase

>  <Saltdate>


>  <Smiles>
COC1=CC=C(C=C1)C2(CCC(F)(CC2)F)C(N3C[C@@H](C[C@@H]3C(NC4=NC5=C(NN=C5)C=C4)=O)F)=O

>  <Solvent>
DMSO Solution

>  <Batch No.>
343167

>  <Quantity>
10mM  * 50uL

>  <Pathway>
Epigenetics

>  <Synonyms>


>  <Formula>
C25H26F3N5O3

>  <Research_Area>
Cancer

>  <Clinical_Information>
No Development Reported

>  <SUPPLIER>
MedChemExpress

$$$$
Untitled Document
  ChemDraw12212114512D

 33 37  0  0  0  0  0  0  0  0999 V2000
   -2.8578   -1.4437    0.0000 O   0  0  0  0  0  0  0  0  0  0  0  0
   -2.8578   -0.6187    0.0000 C   0  0  0  0  0  0  0  0  0  0  0  0
   -3.5723   -0.2062    0.0000 N   0  0  0  0  0  0  0  0  0  0  0  0
   -4.2867   -0.6187    0.0000 C   0  0  0  0  0  0  0  0  0  0  0  0
   -4.2867   -1.4437    0.0000 N   0  0  0  0  0  0  0  0  0  0  0  0
   -5.0011   -1.8562    0.0000 C   0  0  0  0  0  0  0  0  0  0  0  0
   -5.7156   -1.4437    0.0000 N   0  0  0  0  0  0  0  0  0  0  0  0
   -5.7156   -0.6187    0.0000 C   0  0  0  0  0  0  0  0  0  0  0  0
   -5.0011   -0.2062    0.0000 C   0  0  0  0  0  0  0  0  0  0  0  0
   -2.1433   -0.2062    0.0000 C   0  0  0  0  0  0  0  0  0  0  0  0
   -2.1433    0.6187    0.0000 C   0  0  0  0  0  0  0  0  0  0  0  0
   -1.4289    1.0313    0.0000 C   0  0  0  0  0  0  0  0  0  0  0  0
   -0.7145    0.6187    0.0000 C   0  0  0  0  0  0  0  0  0  0  0  0
   -0.7145   -0.2062    0.0000 C   0  0  0  0  0  0  0  0  0  0  0  0
   -1.4289   -0.6187    0.0000 C   0  0  0  0  0  0  0  0  0  0  0  0
   -0.0000    1.0313    0.0000 C   0  0  0  0  0  0  0  0  0  0  0  0
    0.7145    0.6187    0.0000 N   0  0  0  0  0  0  0  0  0  0  0  0
    1.4289    1.0313    0.0000 C   0  0  0  0  0  0  0  0  0  0  0  0
    1.4289    1.8562    0.0000 O   0  0  0  0  0  0  0  0  0  0  0  0
    2.1433    0.6187    0.0000 C   0  0  0  0  0  0  0  0  0  0  0  0
    2.1433   -0.2062    0.0000 C   0  0  0  0  0  0  0  0  0  0  0  0
    2.8578   -0.6187    0.0000 C   0  0  0  0  0  0  0  0  0  0  0  0
    3.5723   -0.2062    0.0000 C   0  0  0  0  0  0  0  0  0  0  0  0
    4.2867   -0.6187    0.0000 N   0  0  0  0  0  0  0  0  0  0  0  0
    5.0011   -0.2062    0.0000 C   0  0  0  0  0  0  0  0  0  0  0  0
    5.7156   -0.6187    0.0000 O   0  0  0  0  0  0  0  0  0  0  0  0
    5.0011    0.6187    0.0000 C   0  0  0  0  0  0  0  0  0  0  0  0
    4.2867    1.0313    0.0000 O   0  0  0  0  0  0  0  0  0  0  0  0
    3.5723    0.6187    0.0000 C   0  0  0  0  0  0  0  0  0  0  0  0
    2.8578    1.0313    0.0000 C   0  0  0  0  0  0  0  0  0  0  0  0
    0.7145   -0.2062    0.0000 C   0  0  0  0  0  0  0  0  0  0  0  0
    1.1270   -0.9207    0.0000 C   0  0  0  0  0  0  0  0  0  0  0  0
    0.3020   -0.9207    0.0000 C   0  0  0  0  0  0  0  0  0  0  0  0
  1  2  2  0      
  2  3  1  0      
  3  4  1  0      
  4  5  1  0      
  5  6  2  0      
  6  7  1  0      
  7  8  2  0      
  8  9  1  0      
  4  9  2  0      
  2 10  1  0      
 10 11  2  0      
 11 12  1  0      
 12 13  2  0      
 13 14  1  0      
 14 15  2  0      
 10 15  1  0      
 13 16  1  0      
 16 17  1  0      
 17 18  1  0      
 18 19  2  0      
 18 20  1  0      
 20 21  2  0      
 21 22  1  0      
 22 23  2  0      
 23 24  1  0      
 24 25  1  0      
 25 26  2  0      
 25 27  1  0      
 27 28  1  0      
 28 29  1  0      
 23 29  1  0      
 29 30  2  0      
 20 30  1  0      
 17 31  1  0      
 31 32  1  0      
 32 33  1  0      
 31 33  1  0      
M  END

>  <RackCode>
HYCPK72334

>  <Cat. No.>
HY-145103

>  <Product Name>
UNC6934

>  <ROW>
I

>  <COLUMN>
11

>  <CAS No.>
2561494-77-5

>  <MWt>
443.45

>  <Target>
Histone Methyltransferase

>  <Saltdate>


>  <Smiles>
O=C(C1=CC=C(CN(C2CC2)C(C3=CC=C4NC(COC4=C3)=O)=O)C=C1)NC5=CC=NC=N5

>  <Solvent>
DMSO Solution

>  <Batch No.>
142991

>  <Quantity>
10mM  * 50uL

>  <Pathway>
Epigenetics

>  <Synonyms>


>  <Formula>
C24H21N5O4

>  <Research_Area>
Cancer

>  <Clinical_Information>
No Development Reported

>  <SUPPLIER>
MedChemExpress

$$$$
Untitled Document
  ChemDraw10311817262D

 33 38  0  0  0  0  0  0  0  0999 V2000
    4.8667   -1.1709    0.0000 O   0  0  0  0  0  0  0  0  0  0  0  0
    4.4542   -0.4564    0.0000 C   0  0  0  0  0  0  0  0  0  0  0  0
    3.6337   -0.3702    0.0000 C   0  0  0  0  0  0  0  0  0  0  0  0
    2.9192   -0.7827    0.0000 O   0  0  0  0  0  0  0  0  0  0  0  0
    2.3061   -0.2306    0.0000 C   0  0  0  0  0  0  0  0  0  0  0  0
    2.6417    0.5230    0.0000 C   0  0  0  0  0  0  0  0  0  0  0  0
    2.2292    1.2375    0.0000 O   0  0  0  0  0  0  0  0  0  0  0  0
    1.4042    1.2375    0.0000 C   0  0  0  0  0  0  0  0  0  0  0  0
    0.9193    0.5701    0.0000 N   0  0  0  0  0  0  0  0  0  0  0  0
    0.1346    0.8250    0.0000 C   0  0  0  0  0  0  0  0  0  0  0  0
   -0.5798    0.4125    0.0000 C   0  0  0  0  0  0  0  0  0  0  0  0
   -1.2943    0.8250    0.0000 C   0  0  0  0  0  0  0  0  0  0  0  0
   -2.0088    0.4125    0.0000 C   0  0  0  0  0  0  0  0  0  0  0  0
   -2.0088   -0.4125    0.0000 C   0  0  0  0  0  0  0  0  0  0  0  0
   -2.7233   -0.8250    0.0000 C   0  0  0  0  0  0  0  0  0  0  0  0
   -3.4377   -0.4125    0.0000 C   0  0  0  0  0  0  0  0  0  0  0  0
   -4.1522   -0.8250    0.0000 C   0  0  0  0  0  0  0  0  0  0  0  0
   -3.4377   -1.2375    0.0000 C   0  0  0  0  0  0  0  0  0  0  0  0
   -3.4377   -2.0625    0.0000 O   0  0  0  0  0  0  0  0  0  0  0  0
   -4.8667   -0.4125    0.0000 C   0  0  0  0  0  0  0  0  0  0  0  0
   -4.8667   -1.2375    0.0000 C   0  0  0  0  0  0  0  0  0  0  0  0
   -3.4377    0.4125    0.0000 C   0  0  0  0  0  0  0  0  0  0  0  0
   -2.7233    0.8250    0.0000 C   0  0  0  0  0  0  0  0  0  0  0  0
   -1.2943    1.6500    0.0000 C   0  0  0  0  0  0  0  0  0  0  0  0
   -2.0088    2.0625    0.0000 Cl  0  0  0  0  0  0  0  0  0  0  0  0
   -0.5798    2.0625    0.0000 C   0  0  0  0  0  0  0  0  0  0  0  0
    0.1346    1.6500    0.0000 C   0  0  0  0  0  0  0  0  0  0  0  0
    0.9193    1.9049    0.0000 N   0  0  0  0  0  0  0  0  0  0  0  0
    3.8052   -1.1772    0.0000 H   0  0  0  0  0  0  0  0  0  0  0  0
    3.4622    0.4368    0.0000 C   0  0  0  0  0  0  0  0  0  0  0  0
    3.2906    1.2438    0.0000 H   0  0  0  0  0  0  0  0  0  0  0  0
    4.1766    0.8493    0.0000 O   0  0  0  0  0  0  0  0  0  0  0  0
    4.7897    0.2973    0.0000 C   0  0  0  0  0  0  0  0  0  0  0  0
  2  1  1  1      
  2  3  1  0      
  3  4  1  0      
  4  5  1  0      
  5  6  1  0      
  6  7  1  1      
  7  8  1  0      
  8  9  2  0      
  9 10  1  0      
 10 11  2  0      
 11 12  1  0      
 12 13  1  0      
 13 14  2  0      
 14 15  1  0      
 15 16  2  0      
 16 17  1  0      
 17 18  1  0      
 18 19  1  0      
 17 20  1  0      
 20 21  1  0      
 17 21  1  0      
 16 22  1  0      
 22 23  2  0      
 13 23  1  0      
 12 24  2  0      
 24 25  1  0      
 24 26  1  0      
 26 27  2  0      
 10 27  1  0      
 27 28  1  0      
  8 28  1  0      
  3 29  1  6      
  3 30  1  0      
  6 30  1  0      
 30 31  1  6      
 30 32  1  0      
 32 33  1  0      
  2 33  1  0      
M  END

>  <RackCode>
HYCPK72334

>  <Cat. No.>
HY-117755

>  <Product Name>
PF-739

>  <ROW>
J

>  <COLUMN>
11

>  <CAS No.>
1852452-14-2

>  <MWt>
442.89

>  <Target>
AMPK

>  <Saltdate>


>  <Smiles>
O[C@H]1[C@]([H])([C@@]2(OC1)[H])OC[C@H]2OC3=NC4=CC(C5=CC=C(C=C5)C6(CC6)CO)=C(C=C4N3)Cl

>  <Solvent>
DMSO Solution

>  <Batch No.>
312095

>  <Quantity>
10mM  * 50uL

>  <Pathway>
Epigenetics; PI3K/Akt/mTOR

>  <Synonyms>


>  <Formula>
C23H23ClN2O5

>  <Research_Area>
Metabolic Disease

>  <Clinical_Information>
No Development Reported

>  <SUPPLIER>
MedChemExpress

$$$$
Untitled Document
  ChemDraw01132016142D

 24 24  0  0  0  0  0  0  0  0999 V2000
    1.0717   -0.2062    0.0000 C   0  0  0  0  0  0  0  0  0  0  0  0
    1.7862    0.2062    0.0000 C   0  0  0  0  0  0  0  0  0  0  0  0
    2.5006   -0.2062    0.0000 C   0  0  0  0  0  0  0  0  0  0  0  0
    2.5006   -1.0313    0.0000 C   0  0  0  0  0  0  0  0  0  0  0  0
    1.7862   -1.4437    0.0000 C   0  0  0  0  0  0  0  0  0  0  0  0
    1.0717   -1.0313    0.0000 N   0  0  0  0  0  0  0  0  0  0  0  0
    3.2151    0.2062    0.0000 C   0  0  0  0  0  0  0  0  0  0  0  0
    3.2151    1.0313    0.0000 O   0  0  0  0  0  0  0  0  0  0  0  0
    3.9296   -0.2062    0.0000 O   0  0  0  0  0  0  0  0  0  0  0  0
    0.3572    0.2062    0.0000 C   0  0  0  0  0  0  0  0  0  0  0  0
   -0.3572   -0.2062    0.0000 N   0  0  0  0  0  0  0  0  0  0  0  0
   -1.0717    0.2062    0.0000 C   0  0  0  0  0  0  0  0  0  0  0  0
   -1.7862   -0.2062    0.0000 C   0  0  0  0  0  0  0  0  0  0  0  0
   -1.7862   -1.0313    0.0000 O   0  0  0  0  0  0  0  0  0  0  0  0
   -2.5006    0.2062    0.0000 N   0  0  0  0  0  0  0  0  0  0  0  0
   -2.5006    1.0313    0.0000 C   0  0  0  0  0  0  0  0  0  0  0  0
   -3.2151    1.4437    0.0000 C   0  0  0  0  0  0  0  0  0  0  0  0
   -3.2151   -0.2062    0.0000 C   0  0  0  0  0  0  0  0  0  0  0  0
   -3.9296    0.2062    0.0000 C   0  0  0  0  0  0  0  0  0  0  0  0
   -4.6441   -0.2062    0.0000 N   0  0  0  0  0  0  0  0  0  0  0  0
   -5.3585    0.2062    0.0000 C   0  0  0  0  0  0  0  0  0  0  0  0
   -4.6441   -1.0313    0.0000 C   0  0  0  0  0  0  0  0  0  0  0  0
    4.6441    0.2062    0.0000 C   0  0  0  0  0  0  0  0  0  0  0  0
    5.3585   -0.2062    0.0000 C   0  0  0  0  0  0  0  0  0  0  0  0
  1  2  1  0      
  2  3  2  0      
  3  4  1  0      
  4  5  2  0      
  5  6  1  0      
  1  6  2  0      
  7  8  2  0      
  7  9  1  0      
  3  7  1  0      
 12 13  1  0      
 13 14  2  0      
 16 17  1  0      
 15 16  1  0      
 18 19  1  0      
 20 21  1  0      
 20 22  1  0      
 19 20  1  0      
 15 18  1  0      
 13 15  1  0      
 11 12  1  0      
 10 11  1  0      
  1 10  1  0      
 23 24  1  0      
  9 23  1  0      
M  END

>  <RackCode>
HYCPK72334

>  <Cat. No.>
HY-120400

>  <Product Name>
KDM5-C70

>  <ROW>
K

>  <COLUMN>
11

>  <CAS No.>
1596348-32-1

>  <MWt>
336.43

>  <Target>
Histone Demethylase

>  <Saltdate>
Free Base

>  <Smiles>
O=C(C1=CC(CNCC(N(CCN(C)C)CC)=O)=NC=C1)OCC

>  <Solvent>
DMSO Solution

>  <Batch No.>
279818

>  <Quantity>
10mM  * 50uL

>  <Pathway>
Epigenetics

>  <Synonyms>


>  <Formula>
C17H28N4O3

>  <Research_Area>
Cancer

>  <Clinical_Information>
No Development Reported

>  <SUPPLIER>
MedChemExpress

$$$$
Untitled Document
  ChemDraw12261914062D

 26 28  0  0  0  0  0  0  0  0999 V2000
   -0.9920    3.0938    0.0000 C   0  0  0  0  0  0  0  0  0  0  0  0
   -1.7065    3.5062    0.0000 C   0  0  0  0  0  0  0  0  0  0  0  0
   -0.2775    3.5062    0.0000 O   0  0  0  0  0  0  0  0  0  0  0  0
   -0.9920    2.2687    0.0000 N   0  0  0  0  0  0  0  0  0  0  0  0
   -2.4209    3.9187    0.0000 F   0  0  0  0  0  0  0  0  0  0  0  0
   -2.4209    3.0938    0.0000 F   0  0  0  0  0  0  0  0  0  0  0  0
   -1.7065    4.3312    0.0000 F   0  0  0  0  0  0  0  0  0  0  0  0
   -0.2775    1.8563    0.0000 C   0  0  0  0  0  0  0  0  0  0  0  0
   -0.2775    1.0313    0.0000 C   0  0  0  0  0  0  0  0  0  0  0  0
    0.4369    0.6187    0.0000 C   0  0  0  0  0  0  0  0  0  0  0  0
    0.4369   -0.2062    0.0000 C   0  0  0  0  0  0  0  0  0  0  0  0
   -0.2775   -0.6187    0.0000 C   0  0  0  0  0  0  0  0  0  0  0  0
   -0.9920   -0.2062    0.0000 C   0  0  0  0  0  0  0  0  0  0  0  0
   -0.9920    0.6187    0.0000 C   0  0  0  0  0  0  0  0  0  0  0  0
   -0.2775   -1.4437    0.0000 C   0  0  0  0  0  0  0  0  0  0  0  0
    0.4369   -1.8563    0.0000 O   0  0  0  0  0  0  0  0  0  0  0  0
    1.9360   -2.8388    0.0000 N   0  0  0  0  0  0  0  0  0  0  0  0
    2.4209   -3.5062    0.0000 C   0  0  0  0  0  0  0  0  0  0  0  0
    1.9360   -4.1737    0.0000 N   0  0  0  0  0  0  0  0  0  0  0  0
    1.1514   -3.9187    0.0000 C   0  0  0  0  0  0  0  0  0  0  0  0
    0.4369   -4.3312    0.0000 N   0  0  0  0  0  0  0  0  0  0  0  0
   -0.2775   -3.9187    0.0000 C   0  0  0  0  0  0  0  0  0  0  0  0
   -0.2775   -3.0938    0.0000 N   0  0  0  0  0  0  0  0  0  0  0  0
    0.4369   -2.6812    0.0000 C   0  0  0  0  0  0  0  0  0  0  0  0
    1.1514   -3.0938    0.0000 C   0  0  0  0  0  0  0  0  0  0  0  0
   -0.9920   -4.3312    0.0000 N   0  0  0  0  0  0  0  0  0  0  0  0
  1  2  1  0      
  1  3  2  0      
  1  4  1  0      
  2  5  1  0      
  2  6  1  0      
  2  7  1  0      
  9 10  1  0      
 10 11  2  0      
 11 12  1  0      
 12 13  2  0      
 13 14  1  0      
  9 14  2  0      
 17 18  1  0      
 18 19  2  0      
 19 20  1  0      
 20 21  2  0      
 21 22  1  0      
 22 23  2  0      
 23 24  1  0      
 24 25  2  0      
 17 25  1  0      
 20 25  1  0      
 22 26  1  0      
 16 24  1  0      
 15 16  1  0      
 12 15  1  0      
  8  9  1  0      
  4  8  1  0      
M  END

>  <RackCode>
HYCPK72334

>  <Cat. No.>
HY-116716

>  <Product Name>
PIN1 inhibitor API-1

>  <ROW>
L

>  <COLUMN>
11

>  <CAS No.>
680622-70-2

>  <MWt>
366.30

>  <Target>
MicroRNA

>  <Saltdate>
Free Base

>  <Smiles>
O=C(NCC1=CC=C(COC2=C3NC=NC3=NC(N)=N2)C=C1)C(F)(F)F

>  <Solvent>
DMSO Solution

>  <Batch No.>
58484

>  <Quantity>
10mM  * 50uL

>  <Pathway>
Epigenetics

>  <Synonyms>


>  <Formula>
C15H13F3N6O2

>  <Research_Area>
Cancer

>  <Clinical_Information>
No Development Reported

>  <SUPPLIER>
MedChemExpress

$$$$
Untitled Document
  ChemDraw03071910182D

 46 48  0  0  0  0  0  0  0  0999 V2000
    6.5495    2.1150    0.0000 C   0  0  0  0  0  0  0  0  0  0  0  0
    6.0645    1.4476    0.0000 C   0  0  0  0  0  0  0  0  0  0  0  0
    6.2139    2.8687    0.0000 O   0  0  0  0  0  0  0  0  0  0  0  0
    7.3699    2.0288    0.0000 O   0  0  0  0  0  0  0  0  0  0  0  0
    4.6920    0.9207    0.0000 N   0  0  0  0  0  0  0  0  0  0  0  0
    5.2441    1.5338    0.0000 N   0  0  0  0  0  0  0  0  0  0  0  0
    4.8316    2.2483    0.0000 N   0  0  0  0  0  0  0  0  0  0  0  0
    4.0246    2.0768    0.0000 N   0  0  0  0  0  0  0  0  0  0  0  0
    3.9384    1.2563    0.0000 C   0  0  0  0  0  0  0  0  0  0  0  0
    3.2239    0.8438    0.0000 C   0  0  0  0  0  0  0  0  0  0  0  0
    2.5094    1.2563    0.0000 C   0  0  0  0  0  0  0  0  0  0  0  0
    1.7949    0.8438    0.0000 C   0  0  0  0  0  0  0  0  0  0  0  0
    1.7949    0.0188    0.0000 C   0  0  0  0  0  0  0  0  0  0  0  0
    2.5094   -0.3937    0.0000 C   0  0  0  0  0  0  0  0  0  0  0  0
    3.2239    0.0188    0.0000 C   0  0  0  0  0  0  0  0  0  0  0  0
    1.0805   -0.3937    0.0000 C   0  0  0  0  0  0  0  0  0  0  0  0
    1.0805   -1.2187    0.0000 N   0  0  0  0  0  0  0  0  0  0  0  0
    0.3660   -1.6312    0.0000 C   0  0  0  0  0  0  0  0  0  0  0  0
   -0.3485   -1.2187    0.0000 C   0  0  0  0  0  0  0  0  0  0  0  0
   -1.0629   -1.6312    0.0000 C   0  0  0  0  0  0  0  0  0  0  0  0
   -1.7774   -1.2187    0.0000 C   0  0  0  0  0  0  0  0  0  0  0  0
   -2.4919   -1.6312    0.0000 O   0  0  0  0  0  0  0  0  0  0  0  0
   -3.2064   -1.2187    0.0000 C   0  0  0  0  0  0  0  0  0  0  0  0
   -3.2064   -0.3937    0.0000 C   0  0  0  0  0  0  0  0  0  0  0  0
   -3.9208    0.0188    0.0000 C   0  0  0  0  0  0  0  0  0  0  0  0
   -4.6353   -0.3937    0.0000 C   0  0  0  0  0  0  0  0  0  0  0  0
   -4.6353   -1.2187    0.0000 C   0  0  0  0  0  0  0  0  0  0  0  0
   -3.9208   -1.6312    0.0000 C   0  0  0  0  0  0  0  0  0  0  0  0
   -5.3498    0.0188    0.0000 C   0  0  0  0  0  0  0  0  0  0  0  0
   -6.0642   -0.3937    0.0000 N   0  0  0  0  0  0  0  0  0  0  0  0
   -6.8179   -0.0582    0.0000 C   0  0  0  0  0  0  0  0  0  0  0  0
   -7.3699   -0.6712    0.0000 C   0  0  0  0  0  0  0  0  0  0  0  0
   -6.9574   -1.3857    0.0000 C   0  0  0  0  0  0  0  0  0  0  0  0
   -6.1505   -1.2142    0.0000 C   0  0  0  0  0  0  0  0  0  0  0  0
    1.7949   -1.6312    0.0000 C   0  0  0  0  0  0  0  0  0  0  0  0
    2.5094   -1.2187    0.0000 C   0  0  0  0  0  0  0  0  0  0  0  0
    3.2239   -1.6312    0.0000 C   0  0  0  0  0  0  0  0  0  0  0  0
    3.2239   -2.4562    0.0000 C   0  0  0  0  0  0  0  0  0  0  0  0
    3.9384   -2.8687    0.0000 C   0  0  0  0  0  0  0  0  0  0  0  0
    4.6528   -2.4562    0.0000 C   0  0  0  0  0  0  0  0  0  0  0  0
    4.6528   -1.6312    0.0000 C   0  0  0  0  0  0  0  0  0  0  0  0
    3.9384   -1.2187    0.0000 C   0  0  0  0  0  0  0  0  0  0  0  0
   -1.2152    0.9281    0.0000 H   0  0  0  0  0  0  0  0  0  0  0  0
   -0.3902    0.9281    0.0000 Cl  0  0  0  0  0  0  0  0  0  0  0  0
   -1.2152    0.1031    0.0000 H   0  0  0  0  0  0  0  0  0  0  0  0
   -0.3902    0.1031    0.0000 Cl  0  0  0  0  0  0  0  0  0  0  0  0
  1  2  1  0      
  1  3  2  0      
  1  4  1  0      
  5  6  1  0      
  6  7  1  0      
  7  8  2  0      
  8  9  1  0      
  5  9  2  0      
 10 11  1  0      
 11 12  2  0      
 12 13  1  0      
 13 14  2  0      
 14 15  1  0      
 10 15  2  0      
 18 19  1  0      
 19 20  1  0      
 20 21  1  0      
 23 24  1  0      
 24 25  2  0      
 25 26  1  0      
 26 27  2  0      
 27 28  1  0      
 23 28  2  0      
 22 23  1  0      
 30 31  1  0      
 31 32  1  0      
 32 33  1  0      
 33 34  1  0      
 30 34  1  0      
 29 30  1  0      
 26 29  1  0      
 21 22  1  0      
 17 18  1  0      
 35 36  1  0      
 36 37  1  0      
 37 38  1  0      
 38 39  2  0      
 39 40  1  0      
 40 41  2  0      
 41 42  1  0      
 37 42  2  0      
 17 35  1  0      
 16 17  1  0      
 13 16  1  0      
  9 10  1  0      
  2  6  1  0      
 43 44  1  0      
 45 46  1  0      
M  END

>  <RackCode>
HYCPK72334

>  <Cat. No.>
HY-123604A

>  <Product Name>
TH1834 (dihydrochloride)

>  <ROW>
M

>  <COLUMN>
11

>  <CAS No.>
2108830-09-5

>  <MWt>
641.63

>  <Target>
Apoptosis; Histone Acetyltransferase

>  <Saltdate>
Hydrochloride

>  <Smiles>
O=C(O)CN1N=C(C2=CC=C(CN(CCC3=CC=CC=C3)CCCCOC4=CC=C(CN5CCCC5)C=C4)C=C2)N=N1.[H]Cl.[H]Cl

>  <Solvent>
DMSO Solution

>  <Batch No.>
102425

>  <Quantity>
10mM  * 50uL

>  <Pathway>
Apoptosis; Epigenetics

>  <Synonyms>


>  <Formula>
C33H42Cl2N6O3

>  <Research_Area>
Cancer

>  <Clinical_Information>
No Development Reported

>  <SUPPLIER>
MedChemExpress

$$$$
Untitled Document
  ChemDraw01022016222D

 48 54  0  0  0  0  0  0  0  0999 V2000
   -5.3585    0.2062    0.0000 C   0  0  0  0  0  0  0  0  0  0  0  0
   -4.6441    0.6187    0.0000 N   0  0  0  0  0  0  0  0  0  0  0  0
   -3.9296    0.2062    0.0000 N   0  0  0  0  0  0  0  0  0  0  0  0
   -3.9296   -0.6187    0.0000 C   0  0  0  0  0  0  0  0  0  0  0  0
   -4.6441   -1.0313    0.0000 C   0  0  0  0  0  0  0  0  0  0  0  0
   -4.6441   -1.8563    0.0000 C   0  0  0  0  0  0  0  0  0  0  0  0
   -5.3585   -2.2687    0.0000 C   0  0  0  0  0  0  0  0  0  0  0  0
   -6.0730   -1.8563    0.0000 C   0  0  0  0  0  0  0  0  0  0  0  0
   -6.0730   -1.0313    0.0000 C   0  0  0  0  0  0  0  0  0  0  0  0
   -5.3585   -0.6187    0.0000 C   0  0  0  0  0  0  0  0  0  0  0  0
   -6.0730    0.6187    0.0000 O   0  0  0  0  0  0  0  0  0  0  0  0
   -3.2151   -1.0313    0.0000 C   0  0  0  0  0  0  0  0  0  0  0  0
   -2.5006   -0.6187    0.0000 C   0  0  0  0  0  0  0  0  0  0  0  0
   -1.7862   -1.0313    0.0000 C   0  0  0  0  0  0  0  0  0  0  0  0
   -1.0717   -0.6187    0.0000 C   0  0  0  0  0  0  0  0  0  0  0  0
   -1.0717    0.2062    0.0000 C   0  0  0  0  0  0  0  0  0  0  0  0
   -1.7862    0.6187    0.0000 C   0  0  0  0  0  0  0  0  0  0  0  0
   -2.5006    0.2062    0.0000 C   0  0  0  0  0  0  0  0  0  0  0  0
   -0.3572    0.6187    0.0000 F   0  0  0  0  0  0  0  0  0  0  0  0
   -0.3572   -1.0313    0.0000 C   0  0  0  0  0  0  0  0  0  0  0  0
   -0.3572   -1.8563    0.0000 O   0  0  0  0  0  0  0  0  0  0  0  0
    3.2151   -0.6187    0.0000 C   0  0  0  0  0  0  0  0  0  0  0  0
    2.5006   -1.0313    0.0000 N   0  0  0  0  0  0  0  0  0  0  0  0
    1.7862   -0.6187    0.0000 C   0  0  0  0  0  0  0  0  0  0  0  0
    1.7862    0.2062    0.0000 C   0  0  0  0  0  0  0  0  0  0  0  0
    2.5006    0.6187    0.0000 C   0  0  0  0  0  0  0  0  0  0  0  0
    3.2151    0.2062    0.0000 N   0  0  0  0  0  0  0  0  0  0  0  0
    1.0717   -1.0313    0.0000 C   0  0  0  0  0  0  0  0  0  0  0  0
    1.0717    0.6187    0.0000 C   0  0  0  0  0  0  0  0  0  0  0  0
    0.3572    0.2062    0.0000 C   0  0  0  0  0  0  0  0  0  0  0  0
    0.3572   -0.6187    0.0000 N   0  0  0  0  0  0  0  0  0  0  0  0
    2.5006    1.4437    0.0000 N   0  0  0  0  0  0  0  0  0  0  0  0
    1.7862    1.8563    0.0000 C   0  0  0  0  0  0  0  0  0  0  0  0
    1.7862    2.6812    0.0000 C   0  0  0  0  0  0  0  0  0  0  0  0
    2.5006    3.0938    0.0000 O   0  0  0  0  0  0  0  0  0  0  0  0
    3.2151    2.6812    0.0000 C   0  0  0  0  0  0  0  0  0  0  0  0
    3.2151    1.8563    0.0000 C   0  0  0  0  0  0  0  0  0  0  0  0
    4.6441   -0.6187    0.0000 C   0  0  0  0  0  0  0  0  0  0  0  0
    3.9296   -1.0313    0.0000 C   0  0  0  0  0  0  0  0  0  0  0  0
    3.9296   -1.8563    0.0000 C   0  0  0  0  0  0  0  0  0  0  0  0
    4.6441   -2.2687    0.0000 C   0  0  0  0  0  0  0  0  0  0  0  0
    5.3585   -1.8563    0.0000 C   0  0  0  0  0  0  0  0  0  0  0  0
    5.3585   -1.0313    0.0000 N   0  0  0  0  0  0  0  0  0  0  0  0
    3.2151   -2.2687    0.0000 C   0  0  0  0  0  0  0  0  0  0  0  0
    2.5006   -2.6812    0.0000 F   0  0  0  0  0  0  0  0  0  0  0  0
    3.2151   -3.0938    0.0000 F   0  0  0  0  0  0  0  0  0  0  0  0
    2.5006   -1.8563    0.0000 F   0  0  0  0  0  0  0  0  0  0  0  0
    6.0730   -2.2687    0.0000 N   0  0  0  0  0  0  0  0  0  0  0  0
  1  2  1  0      
  2  3  1  0      
  3  4  2  0      
  4  5  1  0      
  5  6  1  0      
  6  7  2  0      
  7  8  1  0      
  8  9  2  0      
  9 10  1  0      
  1 10  1  0      
  5 10  2  0      
  1 11  2  0      
 13 14  1  0      
 14 15  2  0      
 15 16  1  0      
 16 17  2  0      
 17 18  1  0      
 13 18  2  0      
 16 19  1  0      
 20 21  2  0      
 22 23  1  0      
 23 24  2  0      
 24 25  1  0      
 25 26  2  0      
 26 27  1  0      
 22 27  2  0      
 29 30  1  0      
 30 31  1  0      
 28 31  1  0      
 28 24  1  0      
 29 25  1  0      
 32 33  1  0      
 33 34  1  0      
 34 35  1  0      
 35 36  1  0      
 36 37  1  0      
 32 37  1  0      
 26 32  1  0      
 38 39  1  0      
 39 40  2  0      
 40 41  1  0      
 41 42  2  0      
 42 43  1  0      
 38 43  2  0      
 44 45  1  0      
 44 46  1  0      
 44 47  1  0      
 40 44  1  0      
 42 48  1  0      
 22 39  1  0      
 20 31  1  0      
 15 20  1  0      
 12 13  1  0      
  4 12  1  0      
M  END

>  <RackCode>
HYCPK72334

>  <Cat. No.>
HY-133124

>  <Product Name>
PARP/PI3K-IN-1

>  <ROW>
N

>  <COLUMN>
11

>  <CAS No.>
2337386-47-5

>  <MWt>
660.62

>  <Target>
Apoptosis; PARP; PI3K

>  <Saltdate>


>  <Smiles>
O=C1NN=C(CC2=CC=C(F)C(C(N3CCC4=C(N5CCOCC5)N=C(C6=C(C(F)(F)F)C=C(N)N=C6)N=C4C3)=O)=C2)C7=C1C=CC=C7

>  <Solvent>
DMSO Solution

>  <Batch No.>
275906

>  <Quantity>
10mM  * 50uL

>  <Pathway>
Apoptosis; Cell Cycle/DNA Damage; Epigenetics; PI3K/Akt/mTOR

>  <Synonyms>


>  <Formula>
C33H28F4N8O3

>  <Research_Area>
Cancer

>  <Clinical_Information>
No Development Reported

>  <SUPPLIER>
MedChemExpress

$$$$
Untitled Document
  ChemDraw07142209242D

 19 20  0  0  0  0  0  0  0  0999 V2000
   -0.0086    1.1540    0.0000 O   0  0  0  0  0  0  0  0  0  0  0  0
   -0.0086    0.3290    0.0000 C   0  0  0  0  0  0  0  0  0  0  0  0
   -0.7231   -0.0835    0.0000 N   0  0  0  0  0  0  0  0  0  0  0  0
   -1.4376    0.3290    0.0000 C   0  0  0  0  0  0  0  0  0  0  0  0
   -1.5238    1.1495    0.0000 N   0  0  0  0  0  0  0  0  0  0  0  0
   -2.3307    1.3210    0.0000 O   0  0  0  0  0  0  0  0  0  0  0  0
   -2.7432    0.6065    0.0000 C   0  0  0  0  0  0  0  0  0  0  0  0
   -2.1911   -0.0066    0.0000 C   0  0  0  0  0  0  0  0  0  0  0  0
   -3.5636    0.5203    0.0000 C   0  0  0  0  0  0  0  0  0  0  0  0
    0.7059   -0.0835    0.0000 C   0  0  0  0  0  0  0  0  0  0  0  0
    0.7059   -0.9085    0.0000 C   0  0  0  0  0  0  0  0  0  0  0  0
    1.4203   -1.3210    0.0000 C   0  0  0  0  0  0  0  0  0  0  0  0
    2.1347   -0.9085    0.0000 C   0  0  0  0  0  0  0  0  0  0  0  0
    2.8492   -1.3210    0.0000 O   0  0  0  0  0  0  0  0  0  0  0  0
    3.5636   -0.9085    0.0000 C   0  0  0  0  0  0  0  0  0  0  0  0
    2.1347   -0.0835    0.0000 C   0  0  0  0  0  0  0  0  0  0  0  0
    2.8492    0.3290    0.0000 O   0  0  0  0  0  0  0  0  0  0  0  0
    3.5636   -0.0835    0.0000 C   0  0  0  0  0  0  0  0  0  0  0  0
    1.4203    0.3290    0.0000 C   0  0  0  0  0  0  0  0  0  0  0  0
  1  2  2  0      
  2  3  1  0      
  3  4  1  0      
  4  5  2  0      
  5  6  1  0      
  6  7  1  0      
  7  8  2  0      
  4  8  1  0      
  7  9  1  0      
  2 10  1  0      
 10 11  2  0      
 11 12  1  0      
 12 13  2  0      
 13 14  1  0      
 14 15  1  0      
 13 16  1  0      
 16 17  1  0      
 17 18  1  0      
 16 19  2  0      
 10 19  1  0      
M  END

>  <RackCode>
HYCPK72334

>  <Cat. No.>
HY-147202

>  <Product Name>
BRD4 Inhibitor-24

>  <ROW>
O

>  <COLUMN>
11

>  <CAS No.>
309951-18-6

>  <MWt>
262.26

>  <Target>
Epigenetic Reader Domain

>  <Saltdate>


>  <Smiles>
O=C(C1=CC=C(C(OC)=C1)OC)NC2=NOC(C)=C2

>  <Solvent>
DMSO Solution

>  <Batch No.>
160503

>  <Quantity>
10mM  * 50uL

>  <Pathway>
Epigenetics

>  <Synonyms>


>  <Formula>
C13H14N2O4

>  <Research_Area>
Cancer

>  <Clinical_Information>
No Development Reported

>  <SUPPLIER>
MedChemExpress

$$$$
Untitled Document
  ChemDraw08301908352D

 25 26  0  0  0  0  0  0  0  0999 V2000
   -0.3572   -0.2062    0.0000 C   0  0  0  0  0  0  0  0  0  0  0  0
   -1.0717    0.2062    0.0000 C   0  0  0  0  0  0  0  0  0  0  0  0
   -1.7862   -0.2062    0.0000 C   0  0  0  0  0  0  0  0  0  0  0  0
   -2.5006    0.2062    0.0000 C   0  0  0  0  0  0  0  0  0  0  0  0
   -3.2151   -0.2062    0.0000 C   0  0  0  0  0  0  0  0  0  0  0  0
   -3.9296    0.2062    0.0000 C   0  0  0  0  0  0  0  0  0  0  0  0
   -0.3572   -1.0313    0.0000 O   0  0  0  0  0  0  0  0  0  0  0  0
    0.3572    0.2062    0.0000 N   0  0  0  0  0  0  0  0  0  0  0  0
    3.9296   -0.2062    0.0000 C   0  0  0  0  0  0  0  0  0  0  0  0
    3.9296   -1.0313    0.0000 C   0  0  0  0  0  0  0  0  0  0  0  0
    3.2151   -1.4437    0.0000 C   0  0  0  0  0  0  0  0  0  0  0  0
    2.5006   -1.0313    0.0000 C   0  0  0  0  0  0  0  0  0  0  0  0
    2.5006   -0.2062    0.0000 C   0  0  0  0  0  0  0  0  0  0  0  0
    3.2151    0.2062    0.0000 O   0  0  0  0  0  0  0  0  0  0  0  0
    1.7862    0.2062    0.0000 C   0  0  0  0  0  0  0  0  0  0  0  0
    1.0717   -0.2062    0.0000 C   0  0  0  0  0  0  0  0  0  0  0  0
    1.0717   -1.0313    0.0000 C   0  0  0  0  0  0  0  0  0  0  0  0
    1.7862   -1.4437    0.0000 C   0  0  0  0  0  0  0  0  0  0  0  0
    4.6441    0.2062    0.0000 O   0  0  0  0  0  0  0  0  0  0  0  0
    3.2151   -2.2687    0.0000 C   0  0  0  0  0  0  0  0  0  0  0  0
   -4.6441   -0.2062    0.0000 N   0  0  0  0  0  0  0  0  0  0  0  0
   -1.0717    1.0313    0.0000 N   0  0  0  0  0  0  0  0  0  0  0  0
   -1.7862    1.4437    0.0000 C   0  0  0  0  0  0  0  0  0  0  0  0
   -1.7862    2.2687    0.0000 O   0  0  0  0  0  0  0  0  0  0  0  0
   -2.5006    1.0313    0.0000 C   0  0  0  0  0  0  0  0  0  0  0  0
  1  2  1  0      
  2  3  1  0      
  3  4  1  0      
  4  5  1  0      
  5  6  1  0      
  1  7  2  0      
  1  8  1  0      
  9 10  1  0      
 10 11  2  0      
 11 12  1  0      
 12 13  1  0      
 13 14  1  0      
  9 14  1  0      
 15 16  1  0      
 16 17  2  0      
 17 18  1  0      
 18 12  2  0      
 15 13  2  0      
  9 19  2  0      
 11 20  1  0      
  8 16  1  0      
  6 21  1  0      
 23 24  2  0      
 23 25  1  0      
 22 23  1  0      
  2 22  1  6      
M  END

>  <RackCode>
HYCPK72334

>  <Cat. No.>
HY-128919

>  <Product Name>
Ac-Lys-AMC

>  <ROW>
P

>  <COLUMN>
11

>  <CAS No.>
156661-42-6

>  <MWt>
345.39

>  <Target>
HDAC

>  <Saltdate>
Free Base

>  <Smiles>
O=C(NC1=CC=C(C(O2)=C1)C(C)=CC2=O)[C@@H](NC(C)=O)CCCCN

>  <Solvent>
DMSO Solution

>  <Batch No.>
102491

>  <Quantity>
10mM  * 50uL

>  <Pathway>
Cell Cycle/DNA Damage; Epigenetics

>  <Synonyms>


>  <Formula>
C18H23N3O4

>  <Research_Area>
Others

>  <Clinical_Information>
No Development Reported

>  <SUPPLIER>
MedChemExpress

$$$$
Untitled Document
  ChemDraw08081709232D

 28 30  0  0  0  0  0  0  0  0999 V2000
   -0.0655   -1.1445    0.0000 O   0  0  0  0  0  0  0  0  0  0  0  0
    0.6482   -1.5582    0.0000 C   0  0  0  0  0  0  0  0  0  0  0  0
    1.3620   -1.1445    0.0000 C   0  0  0  0  0  0  0  0  0  0  0  0
    2.0758   -1.5582    0.0000 C   0  0  0  0  0  0  0  0  0  0  0  0
    2.0758   -2.3799    0.0000 C   0  0  0  0  0  0  0  0  0  0  0  0
    1.3620   -0.3149    0.0000 C   0  0  0  0  0  0  0  0  0  0  0  0
    0.6482   -2.3799    0.0000 O   0  0  0  0  0  0  0  0  0  0  0  0
   -0.0655   -0.3149    0.0000 C   0  0  0  0  0  0  0  0  0  0  0  0
    0.6443    0.0988    0.0000 C   0  0  0  0  0  0  0  0  0  0  0  0
    0.6443    0.9223    0.0000 C   0  0  0  0  0  0  0  0  0  0  0  0
    0.3497    1.6979    0.0000 C   0  0  0  0  0  0  0  0  0  0  0  0
   -0.4807    1.6979    0.0000 C   0  0  0  0  0  0  0  0  0  0  0  0
   -0.7752    0.9223    0.0000 C   0  0  0  0  0  0  0  0  0  0  0  0
   -0.7752    0.0988    0.0000 C   0  0  0  0  0  0  0  0  0  0  0  0
   -0.7752   -0.7307    0.0000 C   0  0  0  0  0  0  0  0  0  0  0  0
   -2.1965    0.0988    0.0000 C   0  0  0  0  0  0  0  0  0  0  0  0
   -2.7794   -0.4826    0.0000 O   0  0  0  0  0  0  0  0  0  0  0  0
   -2.1965    0.9223    0.0000 C   0  0  0  0  0  0  0  0  0  0  0  0
   -1.4869    1.3361    0.0000 C   0  0  0  0  0  0  0  0  0  0  0  0
   -1.1351    1.9159    0.0000 H   0  0  0  0  0  0  0  0  0  0  0  0
   -0.9408    2.3799    0.0000 C   0  0  0  0  0  0  0  0  0  0  0  0
    1.3560    1.3361    0.0000 O   0  0  0  0  0  0  0  0  0  0  0  0
    2.0657    0.9223    0.0000 C   0  0  0  0  0  0  0  0  0  0  0  0
    2.0657    0.0988    0.0000 C   0  0  0  0  0  0  0  0  0  0  0  0
    2.6486   -0.4826    0.0000 C   0  0  0  0  0  0  0  0  0  0  0  0
    2.7794    1.3381    0.0000 O   0  0  0  0  0  0  0  0  0  0  0  0
    0.6443    1.7519    0.0000 H   0  0  0  0  0  0  0  0  0  0  0  0
    0.6443   -0.7307    0.0000 H   0  0  0  0  0  0  0  0  0  0  0  0
  1  2  1  0      
  8  1  1  6      
  2  3  1  0      
  2  7  2  0      
  3  4  2  0      
  3  6  1  0      
  4  5  1  0      
  8  9  1  0      
  8 14  1  0      
  9 10  1  0      
  9 24  1  0      
  9 28  1  6      
 10 11  1  0      
 10 22  1  0      
 10 27  1  6      
 11 12  1  0      
 13 12  1  0      
 12 21  1  6      
 14 13  1  0      
 13 19  1  0      
 13 20  1  6      
 14 15  1  1      
 14 16  1  0      
 16 17  2  0      
 16 18  1  0      
 19 18  2  0      
 22 23  1  0      
 24 23  1  0      
 23 26  2  0      
 24 25  1  1      
M  END

>  <RackCode>
HYCPK72334

>  <Cat. No.>
HY-N2959

>  <Product Name>
Brevilin A

>  <ROW>
A

>  <COLUMN>
12

>  <CAS No.>
16503-32-5

>  <MWt>
346.42

>  <Target>
Apoptosis; Autophagy; JAK; STAT

>  <Saltdate>
Free Base

>  <Smiles>
C/C=C(C)\C(O[C@H]1[C@@]([C@@H]2C)([H])[C@@](OC2=O)([H])C[C@@H](C)[C@@]3([H])[C@]1(C(C=C3)=O)C)=O

>  <Solvent>
DMSO Solution

>  <Batch No.>
80339

>  <Quantity>
10mM  * 50uL

>  <Pathway>
Apoptosis; Autophagy; Epigenetics; JAK/STAT Signaling; Protein Tyrosine Kinase/RTK; Stem Cell/Wnt

>  <Synonyms>


>  <Formula>
C20H26O5

>  <Research_Area>
Cancer

>  <Clinical_Information>
No Development Reported

>  <SUPPLIER>
MedChemExpress

$$$$
Untitled Document
  ChemDraw03091614462D

 25 26  0  0  0  0  0  0  0  0999 V2000
   -2.8579    1.0313    0.0000 C   0  0  0  0  0  0  0  0  0  0  0  0
   -3.5724    0.6188    0.0000 C   0  0  0  0  0  0  0  0  0  0  0  0
   -3.5724   -0.2063    0.0000 C   0  0  0  0  0  0  0  0  0  0  0  0
   -4.2868   -0.6188    0.0000 C   0  0  0  0  0  0  0  0  0  0  0  0
   -5.0016   -0.2063    0.0000 C   0  0  0  0  0  0  0  0  0  0  0  0
   -5.0016    0.6188    0.0000 C   0  0  0  0  0  0  0  0  0  0  0  0
   -4.2868    1.0313    0.0000 C   0  0  0  0  0  0  0  0  0  0  0  0
   -2.8579    1.8563    0.0000 O   0  0  0  0  0  0  0  0  0  0  0  0
   -2.1434    0.6188    0.0000 O   0  0  0  0  0  0  0  0  0  0  0  0
   -4.2868    1.8563    0.0000 O   0  0  0  0  0  0  0  0  0  0  0  0
   -2.8579   -0.6188    0.0000 C   0  0  0  0  0  0  0  0  0  0  0  0
   -2.1434   -0.2063    0.0000 C   0  0  0  0  0  0  0  0  0  0  0  0
   -1.4289   -0.6188    0.0000 C   0  0  0  0  0  0  0  0  0  0  0  0
   -1.4289   -1.4438    0.0000 C   0  0  0  0  0  0  0  0  0  0  0  0
   -0.7145   -1.8563    0.0000 C   0  0  0  0  0  0  0  0  0  0  0  0
   -0.0000   -1.4438    0.0000 C   0  0  0  0  0  0  0  0  0  0  0  0
   -0.0000   -0.6188    0.0000 C   0  0  0  0  0  0  0  0  0  0  0  0
   -0.7145   -0.2063    0.0000 C   0  0  0  0  0  0  0  0  0  0  0  0
    0.7145   -1.8563    0.0000 C   0  0  0  0  0  0  0  0  0  0  0  0
    1.4289   -1.4438    0.0000 C   0  0  0  0  0  0  0  0  0  0  0  0
    2.1434   -1.8563    0.0000 C   0  0  0  0  0  0  0  0  0  0  0  0
    2.8579   -1.4438    0.0000 C   0  0  0  0  0  0  0  0  0  0  0  0
    3.5724   -1.8563    0.0000 C   0  0  0  0  0  0  0  0  0  0  0  0
    4.2868   -1.4438    0.0000 C   0  0  0  0  0  0  0  0  0  0  0  0
    5.0016   -1.8563    0.0000 C   0  0  0  0  0  0  0  0  0  0  0  0
  1  2  1  0      
  2  3  1  0      
  3  4  2  0      
  4  5  1  0      
  5  6  2  0      
  6  7  1  0      
  2  7  2  0      
  1  8  2  0      
  1  9  1  0      
  7 10  1  0      
 11 12  1  0      
 13 14  1  0      
 14 15  2  0      
 15 16  1  0      
 16 17  2  0      
 17 18  1  0      
 13 18  2  0      
 19 20  1  0      
 20 21  1  0      
 21 22  1  0      
 22 23  1  0      
 23 24  1  0      
 24 25  1  0      
 16 19  1  0      
 12 13  1  0      
  3 11  1  0      
M  END

>  <RackCode>
HYCPK72334

>  <Cat. No.>
HY-15887

>  <Product Name>
MG 149

>  <ROW>
B

>  <COLUMN>
12

>  <CAS No.>
1243583-85-8

>  <MWt>
340.46

>  <Target>
Apoptosis; Epigenetic Reader Domain; Histone Acetyltransferase

>  <Saltdate>
Free Acid

>  <Smiles>
O=C(O)C1=C(O)C=CC=C1CCC2=CC=C(CCCCCCC)C=C2

>  <Solvent>
DMSO Solution

>  <Batch No.>
23513

>  <Quantity>
10mM  * 50uL

>  <Pathway>
Apoptosis; Epigenetics

>  <Synonyms>
Tip60 HAT inhibitor

>  <Formula>
C22H28O3

>  <Research_Area>
Cancer

>  <Clinical_Information>
No Development Reported

>  <SUPPLIER>
MedChemExpress

$$$$
Untitled Document
  ChemDraw09121214362D

 20 22  0  0  0  0  0  0  0  0999 V2000
   -0.6529    0.9085    0.0000 C   0  0  0  0  0  0  0  0  0  0  0  0
   -0.6529    1.7335    0.0000 O   0  0  0  0  0  0  0  0  0  0  0  0
    0.0616    0.4960    0.0000 N   0  0  0  0  0  0  0  0  0  0  0  0
    0.7761    0.9085    0.0000 C   0  0  0  0  0  0  0  0  0  0  0  0
    1.4906    0.4960    0.0000 C   0  0  0  0  0  0  0  0  0  0  0  0
    1.4906   -0.3290    0.0000 C   0  0  0  0  0  0  0  0  0  0  0  0
    0.7761   -0.7415    0.0000 C   0  0  0  0  0  0  0  0  0  0  0  0
    0.0616   -0.3290    0.0000 C   0  0  0  0  0  0  0  0  0  0  0  0
    2.2050   -0.7415    0.0000 N   0  0  0  0  0  0  0  0  0  0  0  0
    2.9587   -0.4059    0.0000 C   0  0  0  0  0  0  0  0  0  0  0  0
    3.5107   -1.0190    0.0000 C   0  0  0  0  0  0  0  0  0  0  0  0
    3.0982   -1.7335    0.0000 C   0  0  0  0  0  0  0  0  0  0  0  0
    2.2913   -1.5620    0.0000 C   0  0  0  0  0  0  0  0  0  0  0  0
   -1.3673    0.4960    0.0000 C   0  0  0  0  0  0  0  0  0  0  0  0
   -2.0818    0.9085    0.0000 C   0  0  0  0  0  0  0  0  0  0  0  0
   -2.7963    0.4960    0.0000 C   0  0  0  0  0  0  0  0  0  0  0  0
   -2.7963   -0.3290    0.0000 C   0  0  0  0  0  0  0  0  0  0  0  0
   -2.0818   -0.7415    0.0000 C   0  0  0  0  0  0  0  0  0  0  0  0
   -1.3673   -0.3290    0.0000 C   0  0  0  0  0  0  0  0  0  0  0  0
   -3.5107    0.9085    0.0000 Br  0  0  0  0  0  0  0  0  0  0  0  0
  1  2  2  0      
  3  4  1  0      
  4  5  1  0      
  5  6  1  0      
  6  7  1  0      
  7  8  1  0      
  3  8  1  0      
  9 10  1  0      
 10 11  1  0      
 11 12  1  0      
 12 13  1  0      
  9 13  1  0      
  6  9  1  0      
  1  3  1  0      
 14 15  1  0      
 15 16  2  0      
 16 17  1  0      
 17 18  2  0      
 18 19  1  0      
 14 19  2  0      
 16 20  1  0      
  1 14  1  0      
M  END

>  <RackCode>
HYCPK72334

>  <Cat. No.>
HY-16510

>  <Product Name>
UNC926

>  <ROW>
C

>  <COLUMN>
12

>  <CAS No.>
1184136-10-4

>  <MWt>
337.25

>  <Target>
Epigenetic Reader Domain

>  <Saltdate>
Free Base

>  <Smiles>
O=C(C1=CC=CC(Br)=C1)N2CCC(N3CCCC3)CC2

>  <Solvent>
DMSO Solution

>  <Batch No.>
25389

>  <Quantity>
10mM  * 50uL

>  <Pathway>
Epigenetics

>  <Synonyms>


>  <Formula>
C16H21BrN2O

>  <Research_Area>
Cancer

>  <Clinical_Information>
No Development Reported

>  <SUPPLIER>
MedChemExpress

$$$$
Untitled Document
  ChemDraw10271609452D

 40 44  0  0  0  0  0  0  0  0999 V2000
    3.0764    1.9035    0.0000 N   0  0  0  0  0  0  0  0  0  0  0  0
    3.5613    1.2362    0.0000 N   0  0  0  0  0  0  0  0  0  0  0  0
    3.0764    0.5687    0.0000 C   0  0  0  0  0  0  0  0  0  0  0  0
    2.2918    0.8237    0.0000 C   0  0  0  0  0  0  0  0  0  0  0  0
    1.5774    0.4112    0.0000 C   0  0  0  0  0  0  0  0  0  0  0  0
    0.8629    0.8237    0.0000 C   0  0  0  0  0  0  0  0  0  0  0  0
    0.8629    1.6487    0.0000 C   0  0  0  0  0  0  0  0  0  0  0  0
    1.5774    2.0611    0.0000 C   0  0  0  0  0  0  0  0  0  0  0  0
    2.2918    1.6487    0.0000 C   0  0  0  0  0  0  0  0  0  0  0  0
    1.5774   -0.4138    0.0000 C   0  0  0  0  0  0  0  0  0  0  0  0
    2.2918   -0.8263    0.0000 O   0  0  0  0  0  0  0  0  0  0  0  0
    0.8629   -0.8263    0.0000 N   0  0  0  0  0  0  0  0  0  0  0  0
   -1.2805    2.0611    0.0000 C   0  0  0  0  0  0  0  0  0  0  0  0
   -0.5660    1.6487    0.0000 C   0  0  0  0  0  0  0  0  0  0  0  0
    0.1484    2.0611    0.0000 C   0  0  0  0  0  0  0  0  0  0  0  0
    0.1484    2.8861    0.0000 C   0  0  0  0  0  0  0  0  0  0  0  0
   -0.5660    3.2986    0.0000 C   0  0  0  0  0  0  0  0  0  0  0  0
   -1.2805    2.8861    0.0000 N   0  0  0  0  0  0  0  0  0  0  0  0
   -1.9949    1.6487    0.0000 N   0  0  0  0  0  0  0  0  0  0  0  0
   -1.9949    0.8237    0.0000 C   0  0  0  0  0  0  0  0  0  0  0  0
   -2.7093    0.4112    0.0000 C   0  0  0  0  0  0  0  0  0  0  0  0
   -3.4238    0.8237    0.0000 N   0  0  0  0  0  0  0  0  0  0  0  0
   -3.4238    1.6487    0.0000 C   0  0  0  0  0  0  0  0  0  0  0  0
   -2.7093    2.0611    0.0000 C   0  0  0  0  0  0  0  0  0  0  0  0
   -4.1383    0.4112    0.0000 C   0  0  0  0  0  0  0  0  0  0  0  0
    0.8629   -1.6513    0.0000 C   0  0  0  0  0  0  0  0  0  0  0  0
   -0.5660   -1.6513    0.0000 C   0  0  0  0  0  0  0  0  0  0  0  0
    0.1484   -2.0637    0.0000 C   0  0  0  0  0  0  0  0  0  0  0  0
    0.1484   -2.8887    0.0000 C   0  0  0  0  0  0  0  0  0  0  0  0
   -0.5660   -3.3012    0.0000 C   0  0  0  0  0  0  0  0  0  0  0  0
   -1.2805   -2.8887    0.0000 C   0  0  0  0  0  0  0  0  0  0  0  0
   -1.2805   -2.0637    0.0000 N   0  0  0  0  0  0  0  0  0  0  0  0
    0.8629   -3.3012    0.0000 C   0  0  0  0  0  0  0  0  0  0  0  0
    1.5774   -2.8887    0.0000 C   0  0  0  0  0  0  0  0  0  0  0  0
    2.2918   -3.3012    0.0000 C   0  0  0  0  0  0  0  0  0  0  0  0
   -0.5660   -0.8263    0.0000 O   0  0  0  0  0  0  0  0  0  0  0  0
   -1.9949   -3.3012    0.0000 C   0  0  0  0  0  0  0  0  0  0  0  0
    3.3313    2.6881    0.0000 C   0  0  0  0  0  0  0  0  0  0  0  0
    2.7793    3.3012    0.0000 C   0  0  0  0  0  0  0  0  0  0  0  0
    4.1383    2.8597    0.0000 C   0  0  0  0  0  0  0  0  0  0  0  0
  1  2  1  0      
  2  3  2  0      
  3  4  1  0      
  4  5  1  0      
  5  6  2  0      
  6  7  1  0      
  7  8  2  0      
  8  9  1  0      
  1  9  1  0      
  4  9  2  0      
 10 11  2  0      
 10 12  1  0      
  5 10  1  0      
 13 14  1  0      
 14 15  2  0      
 15 16  1  0      
 16 17  2  0      
 17 18  1  0      
 13 18  2  0      
 19 20  1  0      
 20 21  1  0      
 21 22  1  0      
 22 23  1  0      
 23 24  1  0      
 19 24  1  0      
 22 25  1  0      
 13 19  1  0      
  7 15  1  0      
 27 28  1  0      
 28 29  2  0      
 29 30  1  0      
 30 31  2  0      
 31 32  1  0      
 27 32  1  0      
 33 34  1  0      
 34 35  1  0      
 29 33  1  0      
 27 36  2  0      
 31 37  1  0      
 26 28  1  0      
 12 26  1  0      
 38 39  1  0      
 38 40  1  0      
  1 38  1  0      
M  END

>  <RackCode>
HYCPK72334

>  <Cat. No.>
HY-13500

>  <Product Name>
GSK343

>  <ROW>
D

>  <COLUMN>
12

>  <CAS No.>
1346704-33-3

>  <MWt>
541.69

>  <Target>
Autophagy; Histone Methyltransferase

>  <Saltdate>
Free Base

>  <Smiles>
O=C(C1=CC(C2=CC(N3CCN(C)CC3)=NC=C2)=CC4=C1C=NN4C(C)C)NCC5=C(CCC)C=C(C)NC5=O

>  <Solvent>
DMSO Solution

>  <Batch No.>
318629

>  <Quantity>
10mM  * 50uL

>  <Pathway>
Autophagy; Epigenetics

>  <Synonyms>


>  <Formula>
C31H39N7O2

>  <Research_Area>
Cancer

>  <Clinical_Information>
No Development Reported

>  <SUPPLIER>
MedChemExpress

$$$$
Untitled Document
  ChemDraw05091615452D

 22 24  0  0  0  0  0  0  0  0999 V2000
    2.8579    0.8250    0.0000 N   0  0  0  0  0  0  0  0  0  0  0  0
    3.5724    0.4125    0.0000 C   0  0  0  0  0  0  0  0  0  0  0  0
    3.5724   -0.4125    0.0000 C   0  0  0  0  0  0  0  0  0  0  0  0
    2.8579   -0.8250    0.0000 C   0  0  0  0  0  0  0  0  0  0  0  0
    2.1434   -0.4125    0.0000 C   0  0  0  0  0  0  0  0  0  0  0  0
    1.4289   -0.8250    0.0000 C   0  0  0  0  0  0  0  0  0  0  0  0
    0.7145   -0.4125    0.0000 C   0  0  0  0  0  0  0  0  0  0  0  0
    0.7145    0.4125    0.0000 C   0  0  0  0  0  0  0  0  0  0  0  0
    1.4289    0.8250    0.0000 C   0  0  0  0  0  0  0  0  0  0  0  0
    2.1434    0.4125    0.0000 C   0  0  0  0  0  0  0  0  0  0  0  0
    1.4289   -1.6500    0.0000 O   0  0  0  0  0  0  0  0  0  0  0  0
    1.4289    1.6500    0.0000 O   0  0  0  0  0  0  0  0  0  0  0  0
   -0.0000    0.8250    0.0000 N   0  0  0  0  0  0  0  0  0  0  0  0
   -0.7145    0.4125    0.0000 C   0  0  0  0  0  0  0  0  0  0  0  0
   -1.4289    0.8250    0.0000 C   0  0  0  0  0  0  0  0  0  0  0  0
   -2.1434    0.4125    0.0000 N   0  0  0  0  0  0  0  0  0  0  0  0
   -2.1434   -0.4125    0.0000 C   0  0  0  0  0  0  0  0  0  0  0  0
   -2.8579   -0.8250    0.0000 C   0  0  0  0  0  0  0  0  0  0  0  0
   -3.5724   -0.4125    0.0000 O   0  0  0  0  0  0  0  0  0  0  0  0
   -3.5724    0.4125    0.0000 C   0  0  0  0  0  0  0  0  0  0  0  0
   -2.8579    0.8250    0.0000 C   0  0  0  0  0  0  0  0  0  0  0  0
   -0.0000   -0.8250    0.0000 Cl  0  0  0  0  0  0  0  0  0  0  0  0
  1  2  2  0      
  2  3  1  0      
  3  4  2  0      
  4  5  1  0      
  5  6  1  0      
  6  7  1  0      
  7  8  2  0      
  8  9  1  0      
  9 10  1  0      
  1 10  1  0      
  5 10  2  0      
  6 11  2  0      
  9 12  2  0      
 14 15  1  0      
 16 17  1  0      
 17 18  1  0      
 18 19  1  0      
 19 20  1  0      
 20 21  1  0      
 16 21  1  0      
 15 16  1  0      
 13 14  1  0      
  8 13  1  0      
  7 22  1  0      
M  END

>  <RackCode>
HYCPK72334

>  <Cat. No.>
HY-100034

>  <Product Name>
NSC 663284

>  <ROW>
E

>  <COLUMN>
12

>  <CAS No.>
383907-43-5

>  <MWt>
321.76

>  <Target>
Histone Methyltransferase; Phosphatase

>  <Saltdate>
Free Base

>  <Smiles>
O=C(C(Cl)=C1NCCN2CCOCC2)C3=C(N=CC=C3)C1=O

>  <Solvent>
DMSO Solution

>  <Batch No.>
25762

>  <Quantity>
10mM  * 50uL

>  <Pathway>
Epigenetics; Metabolic Enzyme/Protease

>  <Synonyms>
DA-3003-1

>  <Formula>
C15H16ClN3O3

>  <Research_Area>
Cancer

>  <Clinical_Information>
No Development Reported

>  <SUPPLIER>
MedChemExpress

$$$$
Untitled Document
  ChemDraw03282416542D

 58 65  0  0  0  0  0  0  0  0999 V2000
    4.5729    0.5359    0.0000 C   0  0  0  0  0  0  0  0  0  0  0  0
    5.2873    0.9484    0.0000 C   0  0  0  0  0  0  0  0  0  0  0  0
    4.5729   -0.2891    0.0000 O   0  0  0  0  0  0  0  0  0  0  0  0
    3.8584    0.9484    0.0000 N   0  0  0  0  0  0  0  0  0  0  0  0
    3.1440    0.5359    0.0000 C   0  0  0  0  0  0  0  0  0  0  0  0
    2.4295    0.9484    0.0000 C   0  0  0  0  0  0  0  0  0  0  0  0
    1.7151    0.5359    0.0000 O   0  0  0  0  0  0  0  0  0  0  0  0
    1.0006    0.9484    0.0000 C   0  0  0  0  0  0  0  0  0  0  0  0
    0.2861    0.5359    0.0000 C   0  0  0  0  0  0  0  0  0  0  0  0
   -0.4283    0.9484    0.0000 O   0  0  0  0  0  0  0  0  0  0  0  0
   -1.1428    0.5359    0.0000 C   0  0  0  0  0  0  0  0  0  0  0  0
   -1.8573    0.9484    0.0000 C   0  0  0  0  0  0  0  0  0  0  0  0
   -2.5718    0.5359    0.0000 O   0  0  0  0  0  0  0  0  0  0  0  0
   -3.2862    0.9484    0.0000 C   0  0  0  0  0  0  0  0  0  0  0  0
   -4.0006    0.5359    0.0000 C   0  0  0  0  0  0  0  0  0  0  0  0
   -4.0006   -0.2891    0.0000 C   0  0  0  0  0  0  0  0  0  0  0  0
   -4.7151   -0.7016    0.0000 C   0  0  0  0  0  0  0  0  0  0  0  0
   -5.4295   -0.2891    0.0000 C   0  0  0  0  0  0  0  0  0  0  0  0
   -5.4295    0.5359    0.0000 C   0  0  0  0  0  0  0  0  0  0  0  0
   -4.7151    0.9484    0.0000 C   0  0  0  0  0  0  0  0  0  0  0  0
   -6.1440   -0.7016    0.0000 C   0  0  0  0  0  0  0  0  0  0  0  0
   -6.8585   -0.2891    0.0000 C   0  0  0  0  0  0  0  0  0  0  0  0
   -7.5730   -0.7016    0.0000 C   0  0  0  0  0  0  0  0  0  0  0  0
   -7.5730   -1.5266    0.0000 C   0  0  0  0  0  0  0  0  0  0  0  0
   -8.2874   -1.9391    0.0000 C   0  0  0  0  0  0  0  0  0  0  0  0
   -8.2874   -2.7641    0.0000 C   0  0  0  0  0  0  0  0  0  0  0  0
   -7.5730   -3.1766    0.0000 C   0  0  0  0  0  0  0  0  0  0  0  0
   -6.8585   -2.7641    0.0000 C   0  0  0  0  0  0  0  0  0  0  0  0
   -6.8585   -1.9391    0.0000 C   0  0  0  0  0  0  0  0  0  0  0  0
   -6.1440   -1.5266    0.0000 O   0  0  0  0  0  0  0  0  0  0  0  0
   -9.0019   -3.1766    0.0000 C   0  0  0  0  0  0  0  0  0  0  0  0
   -9.7164   -2.7641    0.0000 C   0  0  0  0  0  0  0  0  0  0  0  0
   -9.7164   -1.9391    0.0000 C   0  0  0  0  0  0  0  0  0  0  0  0
   -9.0019   -1.5266    0.0000 C   0  0  0  0  0  0  0  0  0  0  0  0
   -8.2874   -0.2891    0.0000 O   0  0  0  0  0  0  0  0  0  0  0  0
    6.5449   -0.8479    0.0000 N   0  0  0  0  0  0  0  0  0  0  0  0
    5.9401   -0.2868    0.0000 C   0  0  0  0  0  0  0  0  0  0  0  0
    6.0018    0.5359    0.0000 C   0  0  0  0  0  0  0  0  0  0  0  0
    6.6834    1.0007    0.0000 N   0  0  0  0  0  0  0  0  0  0  0  0
    7.4718    0.7575    0.0000 C   0  0  0  0  0  0  0  0  0  0  0  0
    7.7732   -0.0105    0.0000 C   0  0  0  0  0  0  0  0  0  0  0  0
    7.3607   -0.7249    0.0000 C   0  0  0  0  0  0  0  0  0  0  0  0
    5.3790   -1.4980    0.0000 N   0  0  0  0  0  0  0  0  0  0  0  0
    5.2196   -0.6885    0.0000 N   0  0  0  0  0  0  0  0  0  0  0  0
    6.1981   -1.5965    0.0000 C   0  0  0  0  0  0  0  0  0  0  0  0
    8.5802   -0.1820    0.0000 C   0  0  0  0  0  0  0  0  0  0  0  0
    8.6664   -1.0025    0.0000 C   0  0  0  0  0  0  0  0  0  0  0  0
    7.9127   -1.3380    0.0000 S   0  0  0  0  0  0  0  0  0  0  0  0
    6.6106   -2.3109    0.0000 C   0  0  0  0  0  0  0  0  0  0  0  0
    9.1933    0.3700    0.0000 C   0  0  0  0  0  0  0  0  0  0  0  0
    9.3809   -1.4150    0.0000 C   0  0  0  0  0  0  0  0  0  0  0  0
    8.0329    1.3623    0.0000 C   0  0  0  0  0  0  0  0  0  0  0  0
    7.7898    2.1506    0.0000 C   0  0  0  0  0  0  0  0  0  0  0  0
    8.3509    2.7554    0.0000 C   0  0  0  0  0  0  0  0  0  0  0  0
    9.1552    2.5718    0.0000 C   0  0  0  0  0  0  0  0  0  0  0  0
    9.3984    1.7835    0.0000 C   0  0  0  0  0  0  0  0  0  0  0  0
    8.8373    1.1787    0.0000 C   0  0  0  0  0  0  0  0  0  0  0  0
    9.7164    3.1766    0.0000 Cl  0  0  0  0  0  0  0  0  0  0  0  0
  1  2  1  0      
  1  3  2  0      
  1  4  1  0      
  5  6  1  0      
  8  9  1  0      
  7  8  1  0      
 11 12  1  0      
 10 11  1  0      
 14 15  1  0      
 15 16  1  0      
 16 17  2  0      
 17 18  1  0      
 18 19  2  0      
 19 20  1  0      
 15 20  2  0      
 21 22  2  0      
 22 23  1  0      
 23 24  1  0      
 24 25  1  0      
 25 26  1  0      
 26 27  1  0      
 27 28  2  0      
 28 29  1  0      
 24 29  2  0      
 29 30  1  0      
 21 30  1  0      
 31 32  1  0      
 32 33  2  0      
 33 34  1  0      
 34 25  2  0      
 31 26  2  0      
 23 35  2  0      
 18 21  1  0      
 13 14  1  0      
 12 13  1  0      
  9 10  1  0      
  6  7  1  0      
  4  5  1  0      
 36 37  1  0      
 37 38  1  0      
 38 39  1  0      
 39 40  2  0      
 40 41  1  0      
 41 42  2  0      
 36 42  1  0      
 43 44  1  0      
 43 45  2  0      
 45 36  1  0      
 44 37  2  0      
 46 47  2  0      
 47 48  1  0      
 46 41  1  0      
 48 42  1  0      
 45 49  1  0      
 46 50  1  0      
 47 51  1  0      
 52 53  1  0      
 53 54  2  0      
 54 55  1  0      
 55 56  2  0      
 56 57  1  0      
 52 57  2  0      
 55 58  1  0      
 40 52  1  0      
 38  2  1  6      
M  END

>  <RackCode>
HYCPK72334

>  <Cat. No.>
HY-130256

>  <Product Name>
¦Â-NF-JQ1

>  <ROW>
F

>  <COLUMN>
12

>  <CAS No.>
2380000-55-3

>  <MWt>
816.36

>  <Target>
Epigenetic Reader Domain; PROTACs

>  <Saltdate>
Free Base

>  <Smiles>
O=C(NCCOCCOCCOCC1=CC=C(C2=CC(C3=C(O2)C=CC4=CC=CC=C34)=O)C=C1)C[C@H]5C6=NN=C(C)N6C7=C(C(C)=C(C)S7)C(C8=CC=C(Cl)C=C8)=N5

>  <Solvent>
DMSO Solution

>  <Batch No.>
289903

>  <Quantity>
10mM  * 50uL

>  <Pathway>
Epigenetics; PROTAC

>  <Synonyms>


>  <Formula>
C45H42ClN5O6S

>  <Research_Area>
Cancer

>  <Clinical_Information>
No Development Reported

>  <SUPPLIER>
MedChemExpress

$$$$
Untitled Document
  ChemDraw11251613432D

 26 28  0  0  0  0  0  0  0  0999 V2000
   -1.1254    1.4595    0.0000 C   0  0  0  0  0  0  0  0  0  0  0  0
   -0.4038    1.0596    0.0000 C   0  0  0  0  0  0  0  0  0  0  0  0
    0.3034    1.4845    0.0000 C   0  0  0  0  0  0  0  0  0  0  0  0
    1.0597    0.9903    0.0000 C   0  0  0  0  0  0  0  0  0  0  0  0
   -1.1398    2.2843    0.0000 O   0  0  0  0  0  0  0  0  0  0  0  0
   -0.3893    0.2347    0.0000 C   0  0  0  0  0  0  0  0  0  0  0  0
    0.4152   -0.1698    0.0000 C   0  0  0  0  0  0  0  0  0  0  0  0
    0.4219   -1.1011    0.0000 C   0  0  0  0  0  0  0  0  0  0  0  0
   -0.2852   -1.5260    0.0000 C   0  0  0  0  0  0  0  0  0  0  0  0
   -0.2708   -2.3508    0.0000 C   0  0  0  0  0  0  0  0  0  0  0  0
    0.4508   -2.7507    0.0000 C   0  0  0  0  0  0  0  0  0  0  0  0
    1.1580   -2.3258    0.0000 C   0  0  0  0  0  0  0  0  0  0  0  0
    1.1435   -1.5010    0.0000 N   0  0  0  0  0  0  0  0  0  0  0  0
    1.8123    1.5312    0.0000 C   0  0  0  0  0  0  0  0  0  0  0  0
    2.5165    1.1013    0.0000 C   0  0  0  0  0  0  0  0  0  0  0  0
    3.2409    1.4961    0.0000 C   0  0  0  0  0  0  0  0  0  0  0  0
    3.2611    2.3208    0.0000 C   0  0  0  0  0  0  0  0  0  0  0  0
    2.5570    2.7507    0.0000 C   0  0  0  0  0  0  0  0  0  0  0  0
    1.8326    2.3559    0.0000 N   0  0  0  0  0  0  0  0  0  0  0  0
   -1.8324    1.0345    0.0000 C   0  0  0  0  0  0  0  0  0  0  0  0
   -2.5540    1.4345    0.0000 C   0  0  0  0  0  0  0  0  0  0  0  0
   -3.2611    1.0095    0.0000 C   0  0  0  0  0  0  0  0  0  0  0  0
   -3.2467    0.1846    0.0000 C   0  0  0  0  0  0  0  0  0  0  0  0
   -2.5251   -0.2153    0.0000 C   0  0  0  0  0  0  0  0  0  0  0  0
   -1.8179    0.2097    0.0000 C   0  0  0  0  0  0  0  0  0  0  0  0
   -0.3871    1.8843    0.0000 C   0  0  0  0  0  0  0  0  0  0  0  0
  1  2  1  0      
  2  3  1  0      
  3  4  1  0      
  1  5  2  0      
  6  7  1  0      
  8  9  1  0      
  9 10  2  0      
 10 11  1  0      
 11 12  2  0      
 12 13  1  0      
  8 13  2  0      
  7  8  1  0      
  2  6  1  0      
 14 15  1  0      
 15 16  2  0      
 16 17  1  0      
 17 18  2  0      
 18 19  1  0      
 14 19  2  0      
  4 14  1  0      
 20 21  1  0      
 21 22  2  0      
 22 23  1  0      
 23 24  2  0      
 24 25  1  0      
 20 25  2  0      
  1 20  1  0      
  2 26  1  0      
M  END

>  <RackCode>
HYCPK72334

>  <Cat. No.>
HY-15480

>  <Product Name>
NSC 42834

>  <ROW>
G

>  <COLUMN>
12

>  <CAS No.>
195371-52-9

>  <MWt>
344.45

>  <Target>
JAK

>  <Saltdate>
Free Base

>  <Smiles>
O=C(C1=CC=CC=C1)C(CCC2=NC=CC=C2)(C)CCC3=NC=CC=C3

>  <Solvent>
DMSO Solution

>  <Batch No.>
12799

>  <Quantity>
10mM  * 50uL

>  <Pathway>
Epigenetics; JAK/STAT Signaling; Protein Tyrosine Kinase/RTK; Stem Cell/Wnt

>  <Synonyms>
JAK2 Inhibitor V; Z3

>  <Formula>
C23H24N2O

>  <Research_Area>
Cancer

>  <Clinical_Information>
No Development Reported

>  <SUPPLIER>
MedChemExpress

$$$$
Untitled Document
  ChemDraw12211712482D

 23 27  0  0  0  0  0  0  0  0999 V2000
    0.4684    0.4799    0.0000 N   0  0  0  0  0  0  0  0  0  0  0  0
    0.0623    0.2469    0.0000 C   0  0  0  0  0  0  0  0  0  0  0  0
   -0.7908    0.2469    0.0000 C   0  0  0  0  0  0  0  0  0  0  0  0
   -0.7908   -0.2469    0.0000 C   0  0  0  0  0  0  0  0  0  0  0  0
   -0.3637   -0.4921    0.0000 N   0  0  0  0  0  0  0  0  0  0  0  0
    0.0623   -0.2469    0.0000 N   0  0  0  0  0  0  0  0  0  0  0  0
   -1.6426   -0.2469    0.0000 C   0  0  0  0  0  0  0  0  0  0  0  0
   -1.6426    0.2469    0.0000 C   0  0  0  0  0  0  0  0  0  0  0  0
   -1.2155    0.4921    0.0000 C   0  0  0  0  0  0  0  0  0  0  0  0
   -2.0685    0.4921    0.0000 C   0  0  0  0  0  0  0  0  0  0  0  0
   -2.4944    0.2469    0.0000 C   0  0  0  0  0  0  0  0  0  0  0  0
   -2.4944   -0.2469    0.0000 C   0  0  0  0  0  0  0  0  0  0  0  0
   -2.0685   -0.4921    0.0000 C   0  0  0  0  0  0  0  0  0  0  0  0
    0.8745    0.2469    0.0000 C   0  0  0  0  0  0  0  0  0  0  0  0
    1.2795    0.4823    0.0000 C   0  0  0  0  0  0  0  0  0  0  0  0
    1.6844    0.2469    0.0000 C   0  0  0  0  0  0  0  0  0  0  0  0
    1.6844   -0.2287    0.0000 C   0  0  0  0  0  0  0  0  0  0  0  0
    1.2795   -0.4641    0.0000 C   0  0  0  0  0  0  0  0  0  0  0  0
    0.8745   -0.2287    0.0000 C   0  0  0  0  0  0  0  0  0  0  0  0
    2.0894   -0.4641    0.0000 O   0  0  0  0  0  0  0  0  0  0  0  0
    2.4944   -0.2287    0.0000 C   0  0  0  0  0  0  0  0  0  0  0  0
    2.4944    0.2469    0.0000 C   0  0  0  0  0  0  0  0  0  0  0  0
    2.0894    0.4823    0.0000 O   0  0  0  0  0  0  0  0  0  0  0  0
  1  2  1  0      
  1 14  1  0      
  2  3  1  0      
  2  6  2  0      
  3  4  2  0      
  3  9  1  0      
  4  5  1  0      
  4  7  1  0      
  6  5  1  0      
  7  8  1  0      
  7 13  2  0      
  9  8  1  0      
  8 10  2  0      
 10 11  1  0      
 12 11  2  0      
 13 12  1  0      
 14 15  1  0      
 14 19  2  0      
 15 16  2  0      
 16 17  1  0      
 16 23  1  0      
 18 17  2  0      
 17 20  1  0      
 19 18  1  0      
 20 21  1  0      
 22 21  1  0      
 23 22  1  0      
M  END

>  <RackCode>
HYCPK72334

>  <Cat. No.>
HY-110266

>  <Product Name>
GN44028

>  <ROW>
H

>  <COLUMN>
12

>  <CAS No.>
1421448-26-1

>  <MWt>
305.33

>  <Target>
HIF/HIF Prolyl-Hydroxylase

>  <Saltdate>
Free Base

>  <Smiles>
C1(NC2=CC=C(OCCO3)C3=C2)=NNC4=C1CC5=CC=CC=C45

>  <Solvent>
DMSO Solution

>  <Batch No.>
103265

>  <Quantity>
10mM  * 50uL

>  <Pathway>
Metabolic Enzyme/Protease

>  <Synonyms>


>  <Formula>
C18H15N3O2

>  <Research_Area>
Cancer

>  <Clinical_Information>
No Development Reported

>  <SUPPLIER>
MedChemExpress

$$$$
Untitled Document
  ChemDraw09292108462D

 19 20  0  0  0  0  0  0  0  0999 V2000
    1.7861    0.6187    0.0000 C   0  0  0  0  0  0  0  0  0  0  0  0
    1.7861   -0.2062    0.0000 C   0  0  0  0  0  0  0  0  0  0  0  0
    1.0717   -0.6187    0.0000 C   0  0  0  0  0  0  0  0  0  0  0  0
    0.3572   -0.2062    0.0000 C   0  0  0  0  0  0  0  0  0  0  0  0
    0.3572    0.6187    0.0000 C   0  0  0  0  0  0  0  0  0  0  0  0
    1.0717    1.0313    0.0000 C   0  0  0  0  0  0  0  0  0  0  0  0
    2.5005    1.0313    0.0000 N   0  0  0  0  0  0  0  0  0  0  0  0
    2.5005    1.8562    0.0000 C   0  0  0  0  0  0  0  0  0  0  0  0
    3.2150    0.6187    0.0000 C   0  0  0  0  0  0  0  0  0  0  0  0
   -0.3572   -0.6187    0.0000 C   0  0  0  0  0  0  0  0  0  0  0  0
   -1.0717   -0.2062    0.0000 C   0  0  0  0  0  0  0  0  0  0  0  0
   -1.7861   -0.6187    0.0000 C   0  0  0  0  0  0  0  0  0  0  0  0
   -1.7861   -1.4437    0.0000 C   0  0  0  0  0  0  0  0  0  0  0  0
   -2.5005   -1.8562    0.0000 C   0  0  0  0  0  0  0  0  0  0  0  0
   -3.2150   -1.4437    0.0000 C   0  0  0  0  0  0  0  0  0  0  0  0
   -3.2150   -0.6187    0.0000 C   0  0  0  0  0  0  0  0  0  0  0  0
   -2.5005   -0.2062    0.0000 C   0  0  0  0  0  0  0  0  0  0  0  0
   -2.5005    0.6187    0.0000 F   0  0  0  0  0  0  0  0  0  0  0  0
   -1.0717   -1.8562    0.0000 Cl  0  0  0  0  0  0  0  0  0  0  0  0
  1  2  1  0      
  2  3  2  0      
  3  4  1  0      
  4  5  2  0      
  5  6  1  0      
  1  6  2  0      
  1  7  1  0      
  7  8  1  0      
  7  9  1  0      
 10 11  2  0      
 12 13  1  0      
 13 14  2  0      
 14 15  1  0      
 15 16  2  0      
 16 17  1  0      
 12 17  2  0      
 17 18  1  0      
 13 19  1  0      
 11 12  1  0      
  4 10  1  0      
M  END

>  <RackCode>
HYCPK72334

>  <Cat. No.>
HY-139536

>  <Product Name>
MAT2A inhibitor 4

>  <ROW>
I

>  <COLUMN>
12

>  <CAS No.>
1391934-91-0

>  <MWt>
275.75

>  <Target>
Methionine Adenosyltransferase (MAT)

>  <Saltdate>


>  <Smiles>
CN(C)C1=CC=C(/C=C/C2=C(F)C=CC=C2Cl)C=C1

>  <Solvent>
DMSO Solution

>  <Batch No.>
117506

>  <Quantity>
10mM  * 50uL

>  <Pathway>
Epigenetics; Metabolic Enzyme/Protease

>  <Synonyms>


>  <Formula>
C16H15ClFN

>  <Research_Area>
Cancer

>  <Clinical_Information>
No Development Reported

>  <SUPPLIER>
MedChemExpress

$$$$
Untitled Document
  ChemDraw06021709252D

 43 48  0  0  0  0  0  0  0  0999 V2000
    1.0129   -0.5776    0.0000 C   0  0  0  0  0  0  0  0  0  0  0  0
    1.0129   -1.4026    0.0000 C   0  0  0  0  0  0  0  0  0  0  0  0
    1.7274   -1.8151    0.0000 C   0  0  0  0  0  0  0  0  0  0  0  0
    2.4420   -1.4026    0.0000 C   0  0  0  0  0  0  0  0  0  0  0  0
    2.4420   -0.5776    0.0000 C   0  0  0  0  0  0  0  0  0  0  0  0
    1.7274   -0.1651    0.0000 C   0  0  0  0  0  0  0  0  0  0  0  0
    3.1564   -1.8151    0.0000 O   0  0  0  0  0  0  0  0  0  0  0  0
    3.8709   -1.4026    0.0000 C   0  0  0  0  0  0  0  0  0  0  0  0
    3.8709   -0.5776    0.0000 C   0  0  0  0  0  0  0  0  0  0  0  0
    3.1564   -0.1651    0.0000 C   0  0  0  0  0  0  0  0  0  0  0  0
    4.4840   -0.0256    0.0000 C   0  0  0  0  0  0  0  0  0  0  0  0
    4.1484    0.7281    0.0000 N   0  0  0  0  0  0  0  0  0  0  0  0
    3.3280    0.6419    0.0000 N   0  0  0  0  0  0  0  0  0  0  0  0
    2.7778    1.2528    0.0000 C   0  0  0  0  0  0  0  0  0  0  0  0
    3.0328    2.0375    0.0000 C   0  0  0  0  0  0  0  0  0  0  0  0
    2.4807    2.6506    0.0000 C   0  0  0  0  0  0  0  0  0  0  0  0
    1.6737    2.4791    0.0000 C   0  0  0  0  0  0  0  0  0  0  0  0
    1.4187    1.6944    0.0000 C   0  0  0  0  0  0  0  0  0  0  0  0
    1.9708    1.0813    0.0000 C   0  0  0  0  0  0  0  0  0  0  0  0
    1.1236    3.0901    0.0000 C   0  0  0  0  0  0  0  0  0  0  0  0
    1.3776    3.8720    0.0000 O   0  0  0  0  0  0  0  0  0  0  0  0
    0.3194    2.9192    0.0000 O   0  0  0  0  0  0  0  0  0  0  0  0
    4.2820   -2.1146    0.0000 C   0  0  0  0  0  0  0  0  0  0  0  0
    4.6930   -1.4026    0.0000 C   0  0  0  0  0  0  0  0  0  0  0  0
    0.3009   -1.8137    0.0000 N   0  0  0  0  0  0  0  0  0  0  0  0
   -0.4135   -1.4012    0.0000 C   0  0  0  0  0  0  0  0  0  0  0  0
   -1.1280   -1.8137    0.0000 C   0  0  0  0  0  0  0  0  0  0  0  0
   -1.1280   -2.6388    0.0000 N   0  0  0  0  0  0  0  0  0  0  0  0
   -0.4135   -3.0513    0.0000 C   0  0  0  0  0  0  0  0  0  0  0  0
    0.3009   -2.6388    0.0000 C   0  0  0  0  0  0  0  0  0  0  0  0
   -1.8400   -3.0498    0.0000 C   0  0  0  0  0  0  0  0  0  0  0  0
   -2.5521   -2.6388    0.0000 O   0  0  0  0  0  0  0  0  0  0  0  0
   -2.5521   -1.8165    0.0000 C   0  0  0  0  0  0  0  0  0  0  0  0
   -3.2641   -1.4055    0.0000 C   0  0  0  0  0  0  0  0  0  0  0  0
   -3.2641   -0.5805    0.0000 C   0  0  0  0  0  0  0  0  0  0  0  0
   -3.9786   -0.1680    0.0000 C   0  0  0  0  0  0  0  0  0  0  0  0
   -4.6930   -0.5805    0.0000 C   0  0  0  0  0  0  0  0  0  0  0  0
   -4.6930   -1.4055    0.0000 C   0  0  0  0  0  0  0  0  0  0  0  0
   -3.9786   -1.8180    0.0000 C   0  0  0  0  0  0  0  0  0  0  0  0
   -1.8400   -3.8720    0.0000 O   0  0  0  0  0  0  0  0  0  0  0  0
    0.3009   -0.1665    0.0000 N   0  3  0  0  0  0  0  0  0  0  0  0
    0.3009    0.6556    0.0000 O   0  0  0  0  0  0  0  0  0  0  0  0
   -0.4111   -0.5776    0.0000 O   0  5  0  0  0  0  0  0  0  0  0  0
  1  2  2  0      
  2  3  1  0      
  3  4  2  0      
  4  5  1  0      
  5  6  2  0      
  6  1  1  0      
  4  7  1  0      
  7  8  1  0      
  8  9  1  0      
  9 10  2  0      
 10  5  1  0      
  9 11  1  0      
 11 12  2  0      
 12 13  1  0      
 13 10  1  0      
 13 14  1  0      
 14 15  2  0      
 15 16  1  0      
 16 17  2  0      
 17 18  1  0      
 18 19  2  0      
 19 14  1  0      
 17 20  1  0      
 20 21  2  0      
 20 22  1  0      
  8 23  1  0      
  8 24  1  0      
  2 25  1  0      
 25 26  1  0      
 26 27  1  0      
 27 28  1  0      
 28 29  1  0      
 29 30  1  0      
 30 25  1  0      
 28 31  1  0      
 31 32  1  0      
 32 33  1  0      
 33 34  1  0      
 34 35  2  0      
 35 36  1  0      
 36 37  2  0      
 37 38  1  0      
 38 39  2  0      
 39 34  1  0      
 31 40  2  0      
  1 41  1  0      
 41 42  2  0      
 41 43  1  0      
M  CHG  2  41   1  43  -1
M  END

>  <RackCode>
HYCPK72334

>  <Cat. No.>
HY-100692

>  <Product Name>
Lin28-let-7a antagonist 1

>  <ROW>
J

>  <COLUMN>
12

>  <CAS No.>
2024548-03-4

>  <MWt>
583.59

>  <Target>
MicroRNA

>  <Saltdate>
Free Acid

>  <Smiles>
O=C(O)C(C=C1)=CC=C1N2N=CC3=C2C4=CC([N+]([O-])=O)=C(N5CCN(C(OCC6=CC=CC=C6)=O)CC5)C=C4OC3(C)C

>  <Solvent>
DMSO Solution

>  <Batch No.>
68312

>  <Quantity>
10mM  * 50uL

>  <Pathway>
Epigenetics

>  <Synonyms>


>  <Formula>
C31H29N5O7

>  <Research_Area>
Cancer

>  <Clinical_Information>
No Development Reported

>  <SUPPLIER>
MedChemExpress

$$$$
Untitled Document
  ChemDraw04212210542D

 21 23  0  0  0  0  0  0  0  0999 V2000
   -1.1829    3.2755    0.0000 O   0  0  0  0  0  0  0  0  0  0  0  0
   -0.4557    2.8860    0.0000 C   0  0  0  0  0  0  0  0  0  0  0  0
    0.2453    3.3211    0.0000 N   0  0  0  0  0  0  0  0  0  0  0  0
    0.9725    2.9316    0.0000 N   0  0  0  0  0  0  0  0  0  0  0  0
    0.9988    2.1070    0.0000 C   0  0  0  0  0  0  0  0  0  0  0  0
    1.7261    1.7175    0.0000 O   0  0  0  0  0  0  0  0  0  0  0  0
    0.2979    1.6719    0.0000 C   0  0  0  0  0  0  0  0  0  0  0  0
   -0.4294    2.0615    0.0000 C   0  0  0  0  0  0  0  0  0  0  0  0
   -1.1303    1.6264    0.0000 C   0  0  0  0  0  0  0  0  0  0  0  0
   -1.1040    0.8018    0.0000 C   0  0  0  0  0  0  0  0  0  0  0  0
   -0.3768    0.4123    0.0000 C   0  0  0  0  0  0  0  0  0  0  0  0
   -0.3505   -0.4123    0.0000 O   0  0  0  0  0  0  0  0  0  0  0  0
   -1.0514   -0.8474    0.0000 C   0  0  0  0  0  0  0  0  0  0  0  0
   -1.0251   -1.6719    0.0000 C   0  0  0  0  0  0  0  0  0  0  0  0
   -1.7261   -2.1070    0.0000 C   0  0  0  0  0  0  0  0  0  0  0  0
   -1.6998   -2.9316    0.0000 C   0  0  0  0  0  0  0  0  0  0  0  0
   -0.9725   -3.3211    0.0000 C   0  0  0  0  0  0  0  0  0  0  0  0
   -0.2716   -2.8860    0.0000 C   0  0  0  0  0  0  0  0  0  0  0  0
   -0.2979   -2.0615    0.0000 C   0  0  0  0  0  0  0  0  0  0  0  0
    0.4031   -1.6264    0.0000 F   0  0  0  0  0  0  0  0  0  0  0  0
    0.3242    0.8474    0.0000 C   0  0  0  0  0  0  0  0  0  0  0  0
  1  2  2  0      
  2  3  1  0      
  3  4  1  0      
  4  5  1  0      
  5  6  2  0      
  5  7  1  0      
  7  8  2  0      
  2  8  1  0      
  8  9  1  0      
  9 10  2  0      
 10 11  1  0      
 11 12  1  0      
 12 13  1  0      
 13 14  1  0      
 14 15  2  0      
 15 16  1  0      
 16 17  2  0      
 17 18  1  0      
 18 19  2  0      
 14 19  1  0      
 19 20  1  0      
 11 21  2  0      
  7 21  1  0      
M  END

>  <RackCode>
HYCPK72334

>  <Cat. No.>
HY-146501

>  <Product Name>
PARP10/15-IN-2

>  <ROW>
K

>  <COLUMN>
12

>  <CAS No.>
2892064-99-0

>  <MWt>
286.26

>  <Target>
Apoptosis; PARP

>  <Saltdate>


>  <Smiles>
O=C1NNC(C2=C1C=CC(OCC3=CC=CC=C3F)=C2)=O

>  <Solvent>
DMSO Solution

>  <Batch No.>
241327

>  <Quantity>
10mM  * 50uL

>  <Pathway>
Apoptosis; Cell Cycle/DNA Damage; Epigenetics

>  <Synonyms>


>  <Formula>
C15H11FN2O3

>  <Research_Area>
Cancer

>  <Clinical_Information>
No Development Reported

>  <SUPPLIER>
MedChemExpress

$$$$
Untitled Document
  ChemDraw04302016362D

 32 35  0  0  0  0  0  0  0  0999 V2000
    1.9273    2.6054    0.0000 C   0  0  0  0  0  0  0  0  0  0  0  0
    1.9273    1.7804    0.0000 C   0  0  0  0  0  0  0  0  0  0  0  0
    2.6417    1.3679    0.0000 C   0  0  0  0  0  0  0  0  0  0  0  0
    3.3561    1.7804    0.0000 C   0  0  0  0  0  0  0  0  0  0  0  0
    3.3561    2.6054    0.0000 C   0  0  0  0  0  0  0  0  0  0  0  0
    2.6417    3.0179    0.0000 C   0  0  0  0  0  0  0  0  0  0  0  0
    1.2128    3.0179    0.0000 C   0  0  0  0  0  0  0  0  0  0  0  0
    0.4983    2.6054    0.0000 C   0  0  0  0  0  0  0  0  0  0  0  0
   -0.2162    3.0179    0.0000 N   0  0  0  0  0  0  0  0  0  0  0  0
    0.4983    1.7804    0.0000 C   0  0  0  0  0  0  0  0  0  0  0  0
   -0.2162    1.3679    0.0000 N   0  0  0  0  0  0  0  0  0  0  0  0
   -0.2162    0.5428    0.0000 C   0  0  0  0  0  0  0  0  0  0  0  0
   -0.9306    0.1304    0.0000 C   0  0  0  0  0  0  0  0  0  0  0  0
   -0.9306   -0.6947    0.0000 C   0  0  0  0  0  0  0  0  0  0  0  0
   -0.2162   -1.1071    0.0000 N   0  0  0  0  0  0  0  0  0  0  0  0
    0.4983   -0.6947    0.0000 C   0  0  0  0  0  0  0  0  0  0  0  0
    0.4983    0.1304    0.0000 N   0  0  0  0  0  0  0  0  0  0  0  0
    1.2128   -1.1072    0.0000 C   0  0  0  0  0  0  0  0  0  0  0  0
    1.2128   -1.9322    0.0000 C   0  0  0  0  0  0  0  0  0  0  0  0
    1.9273   -2.3447    0.0000 C   0  0  0  0  0  0  0  0  0  0  0  0
    2.6417   -1.9322    0.0000 N   0  0  0  0  0  0  0  0  0  0  0  0
    2.6417   -1.1072    0.0000 C   0  0  0  0  0  0  0  0  0  0  0  0
    1.9273   -0.6947    0.0000 C   0  0  0  0  0  0  0  0  0  0  0  0
   -1.7152    0.3853    0.0000 C   0  0  0  0  0  0  0  0  0  0  0  0
   -2.2002   -0.2821    0.0000 C   0  0  0  0  0  0  0  0  0  0  0  0
   -1.7152   -0.9496    0.0000 S   0  0  0  0  0  0  0  0  0  0  0  0
   -2.0508    1.1390    0.0000 C   0  0  0  0  0  0  0  0  0  0  0  0
   -2.8713    1.2252    0.0000 C   0  0  0  0  0  0  0  0  0  0  0  0
   -3.3561    0.5578    0.0000 C   0  0  0  0  0  0  0  0  0  0  0  0
   -3.0206   -0.1959    0.0000 C   0  0  0  0  0  0  0  0  0  0  0  0
   -0.7494   -3.0179    0.0000 H   0  0  0  0  0  0  0  0  0  0  0  0
    0.0756   -3.0179    0.0000 Cl  0  0  0  0  0  0  0  0  0  0  0  0
  1  2  2  0      
  2  3  1  0      
  3  4  2  0      
  4  5  1  0      
  5  6  2  0      
  6  1  1  0      
  1  7  1  0      
  8  7  1  1      
  8  9  1  0      
  8 10  1  0      
 10 11  1  0      
 11 12  1  0      
 12 13  1  0      
 13 14  2  0      
 14 15  1  0      
 15 16  2  0      
 16 17  1  0      
 17 12  2  0      
 16 18  1  0      
 18 19  1  0      
 19 20  2  0      
 20 21  1  0      
 21 22  2  0      
 22 23  1  0      
 23 18  2  0      
 13 24  1  0      
 24 25  2  0      
 25 26  1  0      
 26 14  1  0      
 24 27  1  0      
 27 28  1  0      
 28 29  1  0      
 29 30  1  0      
 30 25  1  0      
 31 32  1  0      
M  END

>  <RackCode>
HYCPK72334

>  <Cat. No.>
HY-18713A

>  <Product Name>
CRT0066854 (hydrochloride)

>  <ROW>
L

>  <COLUMN>
12

>  <CAS No.>
2250019-91-9

>  <MWt>
452.01

>  <Target>
PKC; ROCK

>  <Saltdate>
Hydrochloride

>  <Smiles>
N[C@H](CNC1=NC(C2=CC=NC=C2)=NC3=C1C(CCCC4)=C4S3)CC5=CC=CC=C5.[H]Cl

>  <Solvent>
DMSO Solution

>  <Batch No.>
480620

>  <Quantity>
10mM  * 50uL

>  <Pathway>
Cell Cycle/DNA Damage; Cytoskeleton; Epigenetics; Stem Cell/Wnt; TGF-beta/Smad

>  <Synonyms>


>  <Formula>
C24H26ClN5S

>  <Research_Area>
Neurological Disease

>  <Clinical_Information>
No Development Reported

>  <SUPPLIER>
MedChemExpress

$$$$
Untitled Document
  ChemDraw02062316512D

 26 28  0  0  0  0  0  0  0  0999 V2000
   -0.0000    1.4437    0.0000 O   0  0  0  0  0  0  0  0  0  0  0  0
    0.7145    1.0313    0.0000 C   0  0  0  0  0  0  0  0  0  0  0  0
    0.7145    0.2062    0.0000 N   0  0  0  0  0  0  0  0  0  0  0  0
   -0.0000   -0.2062    0.0000 C   0  0  0  0  0  0  0  0  0  0  0  0
   -0.7145    0.2062    0.0000 C   0  0  0  0  0  0  0  0  0  0  0  0
   -1.4289   -0.2062    0.0000 C   0  0  0  0  0  0  0  0  0  0  0  0
   -1.4289   -1.0313    0.0000 C   0  0  0  0  0  0  0  0  0  0  0  0
   -0.7145   -1.4437    0.0000 C   0  0  0  0  0  0  0  0  0  0  0  0
   -0.0000   -1.0313    0.0000 C   0  0  0  0  0  0  0  0  0  0  0  0
    0.7145   -1.4437    0.0000 N   0  0  0  0  0  0  0  0  0  0  0  0
    1.4289   -1.0313    0.0000 C   0  0  0  0  0  0  0  0  0  0  0  0
    2.1435   -1.4437    0.0000 C   0  0  0  0  0  0  0  0  0  0  0  0
    2.1435   -2.2688    0.0000 N   0  0  0  0  0  0  0  0  0  0  0  0
    2.8580   -2.6813    0.0000 C   0  0  0  0  0  0  0  0  0  0  0  0
    1.4289   -2.6813    0.0000 C   0  0  0  0  0  0  0  0  0  0  0  0
    0.7145   -2.2688    0.0000 C   0  0  0  0  0  0  0  0  0  0  0  0
   -2.1435    0.2062    0.0000 N   0  3  0  0  0  0  0  0  0  0  0  0
   -2.1435    1.0313    0.0000 O   0  5  0  0  0  0  0  0  0  0  0  0
   -2.8580   -0.2062    0.0000 O   0  0  0  0  0  0  0  0  0  0  0  0
    1.4289    1.4437    0.0000 C   0  0  0  0  0  0  0  0  0  0  0  0
    2.1435    1.0313    0.0000 C   0  0  0  0  0  0  0  0  0  0  0  0
    2.8580    1.4437    0.0000 C   0  0  0  0  0  0  0  0  0  0  0  0
    2.8580    2.2688    0.0000 C   0  0  0  0  0  0  0  0  0  0  0  0
    2.1435    2.6813    0.0000 C   0  0  0  0  0  0  0  0  0  0  0  0
    1.4289    2.2688    0.0000 C   0  0  0  0  0  0  0  0  0  0  0  0
    0.7145    2.6813    0.0000 Cl  0  0  0  0  0  0  0  0  0  0  0  0
  1  2  2  0      
  2  3  1  0      
  3  4  1  0      
  4  5  2  0      
  5  6  1  0      
  6  7  2  0      
  7  8  1  0      
  8  9  2  0      
  4  9  1  0      
  9 10  1  0      
 10 11  1  0      
 11 12  1  0      
 12 13  1  0      
 13 14  1  0      
 13 15  1  0      
 15 16  1  0      
 10 16  1  0      
  6 17  1  0      
 17 18  1  0      
 17 19  2  0      
  2 20  1  0      
 20 21  1  0      
 21 22  2  0      
 22 23  1  0      
 23 24  2  0      
 24 25  1  0      
 20 25  2  0      
 25 26  1  0      
M  CHG  2  17   1  18  -1
M  END

>  <RackCode>
HYCPK72334

>  <Cat. No.>
HY-148817

>  <Product Name>
WDR5-0102

>  <ROW>
M

>  <COLUMN>
12

>  <CAS No.>
824960-50-1

>  <MWt>
374.82

>  <Target>
WDR5

>  <Saltdate>


>  <Smiles>
O=C(C1=C(Cl)C=CC=C1)NC2=CC([N+]([O-])=O)=CC=C2N3CCN(CC3)C

>  <Solvent>
DMSO Solution

>  <Batch No.>
257938

>  <Quantity>
10mM  * 50uL

>  <Pathway>
Epigenetics

>  <Synonyms>


>  <Formula>
C18H19ClN4O3

>  <Research_Area>
Cancer

>  <Clinical_Information>
No Development Reported

>  <SUPPLIER>
MedChemExpress

$$$$
Untitled Document
  ChemDraw12121910182D

 40 44  0  0  0  0  0  0  0  0999 V2000
    1.3492   -1.4437    0.0000 C   0  0  0  0  0  0  0  0  0  0  0  0
    1.3492   -0.6187    0.0000 C   0  0  0  0  0  0  0  0  0  0  0  0
    0.6348   -0.2062    0.0000 C   0  0  0  0  0  0  0  0  0  0  0  0
   -0.0797   -0.6187    0.0000 C   0  0  0  0  0  0  0  0  0  0  0  0
   -0.0797   -1.4437    0.0000 C   0  0  0  0  0  0  0  0  0  0  0  0
    0.6348   -1.8563    0.0000 C   0  0  0  0  0  0  0  0  0  0  0  0
    2.0637   -1.8563    0.0000 S   0  0  0  0  0  0  0  0  0  0  0  0
    1.6512   -2.5707    0.0000 O   0  0  0  0  0  0  0  0  0  0  0  0
    2.4762   -1.1418    0.0000 O   0  0  0  0  0  0  0  0  0  0  0  0
    2.7782   -2.2687    0.0000 N   0  0  0  0  0  0  0  0  0  0  0  0
   -0.7942   -0.2062    0.0000 N   0  0  0  0  0  0  0  0  0  0  0  0
   -1.5086   -0.6187    0.0000 C   0  0  0  0  0  0  0  0  0  0  0  0
   -3.0077   -2.9362    0.0000 O   0  0  0  0  0  0  0  0  0  0  0  0
   -3.4927   -2.2687    0.0000 C   0  0  0  0  0  0  0  0  0  0  0  0
   -3.0077   -1.6013    0.0000 O   0  0  0  0  0  0  0  0  0  0  0  0
   -2.2231   -1.8563    0.0000 C   0  0  0  0  0  0  0  0  0  0  0  0
   -2.2231   -2.6812    0.0000 C   0  0  0  0  0  0  0  0  0  0  0  0
   -1.5086   -3.0938    0.0000 C   0  0  0  0  0  0  0  0  0  0  0  0
   -0.7942   -2.6812    0.0000 C   0  0  0  0  0  0  0  0  0  0  0  0
   -0.7942   -1.8563    0.0000 C   0  0  0  0  0  0  0  0  0  0  0  0
   -1.5086   -1.4437    0.0000 C   0  0  0  0  0  0  0  0  0  0  0  0
   -4.2071   -1.8563    0.0000 F   0  0  0  0  0  0  0  0  0  0  0  0
   -4.2071   -2.6812    0.0000 F   0  0  0  0  0  0  0  0  0  0  0  0
   -2.2231   -0.2062    0.0000 C   0  0  0  0  0  0  0  0  0  0  0  0
   -2.2231    0.6187    0.0000 C   0  0  0  0  0  0  0  0  0  0  0  0
   -2.9376    1.0313    0.0000 C   0  0  0  0  0  0  0  0  0  0  0  0
   -3.6521    0.6187    0.0000 C   0  0  0  0  0  0  0  0  0  0  0  0
   -3.6521   -0.2062    0.0000 C   0  0  0  0  0  0  0  0  0  0  0  0
   -2.9376   -0.6187    0.0000 N   0  0  0  0  0  0  0  0  0  0  0  0
   -1.5086    1.0313    0.0000 Cl  0  0  0  0  0  0  0  0  0  0  0  0
    0.6348    0.6187    0.0000 N   0  0  0  0  0  0  0  0  0  0  0  0
    2.0637    0.6187    0.0000 N   0  0  0  0  0  0  0  0  0  0  0  0
    1.3492    1.0313    0.0000 C   0  0  0  0  0  0  0  0  0  0  0  0
    1.3492    1.8563    0.0000 N   0  0  0  0  0  0  0  0  0  0  0  0
    2.0637    2.2687    0.0000 C   0  0  0  0  0  0  0  0  0  0  0  0
    2.7782    1.8563    0.0000 N   0  0  0  0  0  0  0  0  0  0  0  0
    2.7782    1.0313    0.0000 C   0  0  0  0  0  0  0  0  0  0  0  0
    3.4927    0.6187    0.0000 O   0  0  0  0  0  0  0  0  0  0  0  0
    4.2071    1.0313    0.0000 C   0  0  0  0  0  0  0  0  0  0  0  0
    2.0637    3.0938    0.0000 N   0  0  0  0  0  0  0  0  0  0  0  0
  1  2  1  0      
  2  3  2  0      
  3  4  1  0      
  4  5  2  0      
  5  6  1  0      
  1  6  2  0      
  7  8  2  0      
  7  9  2  0      
  7 10  1  0      
  1  7  1  0      
 13 14  1  0      
 14 15  1  0      
 15 16  1  0      
 16 17  1  0      
 13 17  1  0      
 18 19  1  0      
 19 20  2  0      
 20 21  1  0      
 21 16  2  0      
 18 17  2  0      
 14 22  1  0      
 14 23  1  0      
 12 21  1  0      
 24 25  1  0      
 25 26  2  0      
 26 27  1  0      
 27 28  2  0      
 28 29  1  0      
 24 29  2  0      
 25 30  1  0      
 12 24  1  0      
 12 11  1  1      
  4 11  1  0      
 32 33  1  0      
 33 34  2  0      
 34 35  1  0      
 35 36  2  0      
 36 37  1  0      
 32 37  2  0      
 38 39  1  0      
 37 38  1  0      
 35 40  1  0      
 31 33  1  0      
  3 31  1  0      
M  END

>  <RackCode>
HYCPK72334

>  <Cat. No.>
HY-135128

>  <Product Name>
Dot1L-IN-5

>  <ROW>
N

>  <COLUMN>
12

>  <CAS No.>
2565705-03-3

>  <MWt>
592.96

>  <Target>
Histone Methyltransferase

>  <Saltdate>


>  <Smiles>
O=S(C1=CC=C(N[C@H](C2=NC=CC=C2Cl)C3=C4OC(F)(F)OC4=CC=C3)C(NC5=NC(N)=NC(OC)=N5)=C1)(N)=O

>  <Solvent>
DMSO Solution

>  <Batch No.>
231906

>  <Quantity>
10mM  * 50uL

>  <Pathway>
Epigenetics

>  <Synonyms>


>  <Formula>
C23H19ClF2N8O5S

>  <Research_Area>
Cancer

>  <Clinical_Information>
No Development Reported

>  <SUPPLIER>
MedChemExpress

$$$$
Untitled Document
  ChemDraw05021708452D

 30 31  0  0  0  0  0  0  0  0999 V2000
   -1.5559   -2.0669    0.0000 H   0  0  0  0  0  0  0  0  0  0  0  0
   -0.7309   -2.0669    0.0000 Cl  0  0  0  0  0  0  0  0  0  0  0  0
   -4.3359    2.4588    0.0000 N   0  0  0  0  0  0  0  0  0  0  0  0
   -4.3359    1.6338    0.0000 C   0  0  0  0  0  0  0  0  0  0  0  0
   -3.6214    1.2213    0.0000 C   0  0  0  0  0  0  0  0  0  0  0  0
   -2.9069    1.6338    0.0000 N   0  0  0  0  0  0  0  0  0  0  0  0
   -2.9069    2.4588    0.0000 C   0  0  0  0  0  0  0  0  0  0  0  0
   -3.6214    2.8713    0.0000 C   0  0  0  0  0  0  0  0  0  0  0  0
   -2.1950    1.2227    0.0000 C   0  0  0  0  0  0  0  0  0  0  0  0
   -2.1950    0.3977    0.0000 C   0  0  0  0  0  0  0  0  0  0  0  0
   -1.4805   -0.0148    0.0000 C   0  0  0  0  0  0  0  0  0  0  0  0
   -0.7660    0.3977    0.0000 C   0  0  0  0  0  0  0  0  0  0  0  0
   -0.7660    1.2227    0.0000 C   0  0  0  0  0  0  0  0  0  0  0  0
   -1.4805    1.6352    0.0000 C   0  0  0  0  0  0  0  0  0  0  0  0
   -0.0540   -0.0133    0.0000 C   0  0  0  0  0  0  0  0  0  0  0  0
    0.6580    0.3977    0.0000 N   0  0  0  0  0  0  0  0  0  0  0  0
   -0.0540   -0.8355    0.0000 O   0  0  0  0  0  0  0  0  0  0  0  0
    1.3700   -0.0133    0.0000 C   0  0  0  0  0  0  0  0  0  0  0  0
    1.3700   -0.8383    0.0000 C   0  0  0  0  0  0  0  0  0  0  0  0
    2.0844   -1.2508    0.0000 C   0  0  0  0  0  0  0  0  0  0  0  0
    2.7989   -0.8383    0.0000 C   0  0  0  0  0  0  0  0  0  0  0  0
    2.7989   -0.0133    0.0000 C   0  0  0  0  0  0  0  0  0  0  0  0
    2.0844    0.3992    0.0000 C   0  0  0  0  0  0  0  0  0  0  0  0
    3.5109   -1.2494    0.0000 C   0  0  0  0  0  0  0  0  0  0  0  0
    3.9234   -1.9639    0.0000 C   0  0  0  0  0  0  0  0  0  0  0  0
    4.3359   -1.2494    0.0000 C   0  0  0  0  0  0  0  0  0  0  0  0
    5.0479   -0.8383    0.0000 N   0  0  0  0  0  0  0  0  0  0  0  0
   -5.0479    2.8699    0.0000 C   0  0  0  0  0  0  0  0  0  0  0  0
   -1.5146   -2.8713    0.0000 H   0  0  0  0  0  0  0  0  0  0  0  0
   -0.6896   -2.8713    0.0000 Cl  0  0  0  0  0  0  0  0  0  0  0  0
  1  2  1  0      
  3  4  1  0      
  4  5  1  0      
  5  6  1  0      
  6  7  1  0      
  7  8  1  0      
  8  3  1  0      
  6  9  1  0      
  9 10  2  0      
 10 11  1  0      
 11 12  2  0      
 12 13  1  0      
 13 14  2  0      
 14  9  1  0      
 12 15  1  0      
 15 16  1  0      
 15 17  2  0      
 16 18  1  0      
 18 19  2  0      
 19 20  1  0      
 20 21  2  0      
 21 22  1  0      
 22 23  2  0      
 23 18  1  0      
 24 21  1  1      
 24 25  1  0      
 25 26  1  0      
 26 24  1  0      
 26 27  1  6      
  3 28  1  0      
 29 30  1  0      
M  END

>  <RackCode>
HYCPK72334

>  <Cat. No.>
HY-19612A

>  <Product Name>
DDP-38003 (dihydrochloride)

>  <ROW>
O

>  <COLUMN>
12

>  <CAS No.>
1831167-98-6

>  <MWt>
423.38

>  <Target>
Histone Demethylase

>  <Saltdate>
Hydrochloride

>  <Smiles>
[H]Cl.O=C(NC1=CC=C([C@@H]2C[C@H]2N)C=C1)C(C=C3)=CC=C3N4CCN(C)CC4.[H]Cl

>  <Solvent>
DMSO Solution

>  <Batch No.>
354472

>  <Quantity>
10mM  * 50uL

>  <Pathway>
Epigenetics

>  <Synonyms>


>  <Formula>
C21H28Cl2N4O

>  <Research_Area>
Cancer

>  <Clinical_Information>
No Development Reported

>  <SUPPLIER>
MedChemExpress

$$$$
Untitled Document
  ChemDraw11012114422D

 27 28  0  0  0  0  0  0  0  0999 V2000
   -3.5723   -0.6187    0.0000 O   0  0  0  0  0  0  0  0  0  0  0  0
   -4.2867   -0.2062    0.0000 C   0  0  0  0  0  0  0  0  0  0  0  0
   -2.8578   -0.2062    0.0000 C   0  0  0  0  0  0  0  0  0  0  0  0
   -2.1433   -0.6187    0.0000 C   0  0  0  0  0  0  0  0  0  0  0  0
   -2.1433   -1.4437    0.0000 O   0  0  0  0  0  0  0  0  0  0  0  0
   -2.8578   -1.8562    0.0000 C   0  0  0  0  0  0  0  0  0  0  0  0
   -1.4289   -0.2062    0.0000 C   0  0  0  0  0  0  0  0  0  0  0  0
   -1.4289    0.6187    0.0000 C   0  0  0  0  0  0  0  0  0  0  0  0
   -0.7145    1.0313    0.0000 C   0  0  0  0  0  0  0  0  0  0  0  0
   -0.0000    0.6187    0.0000 C   0  0  0  0  0  0  0  0  0  0  0  0
    0.7145    1.0313    0.0000 C   0  0  0  0  0  0  0  0  0  0  0  0
    1.4289    0.6187    0.0000 C   0  0  0  0  0  0  0  0  0  0  0  0
    2.1433    1.0313    0.0000 C   0  0  0  0  0  0  0  0  0  0  0  0
    2.8578    0.6187    0.0000 C   0  0  0  0  0  0  0  0  0  0  0  0
    3.5723    1.0313    0.0000 B   0  0  0  0  0  0  0  0  0  0  0  0
    3.5723    1.8562    0.0000 O   0  0  0  0  0  0  0  0  0  0  0  0
    4.2867    0.6187    0.0000 O   0  0  0  0  0  0  0  0  0  0  0  0
    2.8578   -0.2062    0.0000 C   0  0  0  0  0  0  0  0  0  0  0  0
    3.5723   -0.6187    0.0000 O   0  0  0  0  0  0  0  0  0  0  0  0
    4.2867   -0.2062    0.0000 C   0  0  0  0  0  0  0  0  0  0  0  0
    2.1433   -0.6187    0.0000 C   0  0  0  0  0  0  0  0  0  0  0  0
    1.4289   -0.2062    0.0000 C   0  0  0  0  0  0  0  0  0  0  0  0
   -0.7145    1.8562    0.0000 O   0  0  0  0  0  0  0  0  0  0  0  0
   -2.1433    1.0313    0.0000 C   0  0  0  0  0  0  0  0  0  0  0  0
   -2.8578    0.6187    0.0000 C   0  0  0  0  0  0  0  0  0  0  0  0
   -3.5723    1.0313    0.0000 O   0  0  0  0  0  0  0  0  0  0  0  0
   -4.2867    0.6187    0.0000 C   0  0  0  0  0  0  0  0  0  0  0  0
  1  2  1  0      
  1  3  1  0      
  3  4  2  0      
  4  5  1  0      
  5  6  1  0      
  4  7  1  0      
  7  8  2  0      
  8  9  1  0      
  9 10  1  0      
 10 11  2  0      
 11 12  1  0      
 12 13  2  0      
 13 14  1  0      
 14 15  1  0      
 15 16  1  0      
 15 17  1  0      
 14 18  2  0      
 18 19  1  0      
 19 20  1  0      
 18 21  1  0      
 21 22  2  0      
 12 22  1  0      
  9 23  2  0      
  8 24  1  0      
 24 25  2  0      
  3 25  1  0      
 25 26  1  0      
 26 27  1  0      
M  END

>  <RackCode>
HYCPK72334

>  <Cat. No.>
HY-19634

>  <Product Name>
YK-3-237

>  <ROW>
P

>  <COLUMN>
12

>  <CAS No.>
1215281-19-8

>  <MWt>
372.18

>  <Target>
Sirtuin

>  <Saltdate>


>  <Smiles>
COC1=C(C=C(C=C1OC)C(/C=C/C2=CC(B(O)O)=C(C=C2)OC)=O)OC

>  <Solvent>
DMSO Solution

>  <Batch No.>
119754

>  <Quantity>
10mM  * 50uL

>  <Pathway>
Cell Cycle/DNA Damage; Epigenetics

>  <Synonyms>


>  <Formula>
C19H21BO7

>  <Research_Area>
Cancer

>  <Clinical_Information>
No Development Reported

>  <SUPPLIER>
MedChemExpress

$$$$
Untitled Document
  ChemDraw01081917242D

 28 31  0  0  0  0  0  0  0  0999 V2000
    3.0077    0.2389    0.0000 O   0  0  0  0  0  0  0  0  0  0  0  0
    3.4927   -0.4285    0.0000 C   0  0  0  0  0  0  0  0  0  0  0  0
    3.0077   -1.0960    0.0000 O   0  0  0  0  0  0  0  0  0  0  0  0
    2.2231   -0.8410    0.0000 C   0  0  0  0  0  0  0  0  0  0  0  0
    2.2231   -0.0160    0.0000 C   0  0  0  0  0  0  0  0  0  0  0  0
    1.5086   -1.2535    0.0000 C   0  0  0  0  0  0  0  0  0  0  0  0
    0.7942   -0.8410    0.0000 C   0  0  0  0  0  0  0  0  0  0  0  0
    0.7942   -0.0160    0.0000 C   0  0  0  0  0  0  0  0  0  0  0  0
    1.5086    0.3965    0.0000 C   0  0  0  0  0  0  0  0  0  0  0  0
    0.0797   -1.2535    0.0000 O   0  0  0  0  0  0  0  0  0  0  0  0
    0.0797    0.3965    0.0000 C   0  0  0  0  0  0  0  0  0  0  0  0
   -0.6348   -0.0160    0.0000 C   0  0  0  0  0  0  0  0  0  0  0  0
   -1.3492    0.3965    0.0000 C   0  0  0  0  0  0  0  0  0  0  0  0
   -2.0637   -0.0160    0.0000 C   0  0  0  0  0  0  0  0  0  0  0  0
   -2.0637   -0.8410    0.0000 C   0  0  0  0  0  0  0  0  0  0  0  0
   -1.3492   -1.2535    0.0000 C   0  0  0  0  0  0  0  0  0  0  0  0
   -0.6348   -0.8410    0.0000 C   0  0  0  0  0  0  0  0  0  0  0  0
   -1.3492   -2.0785    0.0000 O   0  0  0  0  0  0  0  0  0  0  0  0
   -2.0637   -2.4910    0.0000 C   0  0  0  0  0  0  0  0  0  0  0  0
   -2.7782   -1.2535    0.0000 O   0  0  0  0  0  0  0  0  0  0  0  0
   -3.4927   -0.8410    0.0000 C   0  0  0  0  0  0  0  0  0  0  0  0
   -2.7782    0.3965    0.0000 O   0  0  0  0  0  0  0  0  0  0  0  0
   -3.4927   -0.0160    0.0000 C   0  0  0  0  0  0  0  0  0  0  0  0
    0.0797    1.2215    0.0000 N   0  0  0  0  0  0  0  0  0  0  0  0
   -0.5877    1.7064    0.0000 C   0  0  0  0  0  0  0  0  0  0  0  0
   -0.3328    2.4910    0.0000 C   0  0  0  0  0  0  0  0  0  0  0  0
    0.4922    2.4910    0.0000 C   0  0  0  0  0  0  0  0  0  0  0  0
    0.7471    1.7064    0.0000 C   0  0  0  0  0  0  0  0  0  0  0  0
  1  2  1  0      
  2  3  1  0      
  3  4  1  0      
  4  5  1  0      
  1  5  1  0      
  6  7  1  0      
  7  8  2  0      
  8  9  1  0      
  9  5  2  0      
  6  4  2  0      
  7 10  1  0      
 12 13  1  0      
 13 14  2  0      
 14 15  1  0      
 15 16  2  0      
 16 17  1  0      
 12 17  2  0      
 18 19  1  0      
 16 18  1  0      
 20 21  1  0      
 15 20  1  0      
 22 23  1  0      
 14 22  1  0      
 11 12  1  0      
 24 25  1  0      
 25 26  1  0      
 26 27  1  0      
 27 28  1  0      
 24 28  1  0      
 11 24  1  0      
  8 11  1  0      
M  END

>  <RackCode>
HYCPK72334

>  <Cat. No.>
HY-122258

>  <Product Name>
NSC-370284

>  <ROW>
A

>  <COLUMN>
13

>  <CAS No.>
116409-29-1

>  <MWt>
387.43

>  <Target>
STAT; TET Protein

>  <Saltdate>


>  <Smiles>
OC1=C(C(N2CCCC2)C3=CC(OC)=C(OC)C(OC)=C3)C=C(OCO4)C4=C1

>  <Solvent>
DMSO Solution

>  <Batch No.>
253644

>  <Quantity>
10mM  * 50uL

>  <Pathway>
Epigenetics; JAK/STAT Signaling; Stem Cell/Wnt

>  <Synonyms>


>  <Formula>
C21H25NO6

>  <Research_Area>
Cancer

>  <Clinical_Information>
No Development Reported

>  <SUPPLIER>
MedChemExpress

$$$$
Untitled Document
  ChemDraw12181809092D

 47 51  0  0  0  0  0  0  0  0999 V2000
    1.2567   -0.8961    0.0000 C   0  0  0  0  0  0  0  0  0  0  0  0
    0.5422   -1.3086    0.0000 C   0  0  0  0  0  0  0  0  0  0  0  0
    0.5422   -2.1336    0.0000 C   0  0  0  0  0  0  0  0  0  0  0  0
   -0.1722   -2.5461    0.0000 C   0  0  0  0  0  0  0  0  0  0  0  0
   -0.8867   -2.1336    0.0000 C   0  0  0  0  0  0  0  0  0  0  0  0
   -0.8867   -1.3086    0.0000 C   0  0  0  0  0  0  0  0  0  0  0  0
   -0.1722   -0.8961    0.0000 C   0  0  0  0  0  0  0  0  0  0  0  0
    1.2567   -0.0711    0.0000 O   0  0  0  0  0  0  0  0  0  0  0  0
    1.9712   -1.3086    0.0000 N   0  0  0  0  0  0  0  0  0  0  0  0
   -2.3549   -1.2317    0.0000 O   0  0  0  0  0  0  0  0  0  0  0  0
   -1.6012   -0.8961    0.0000 C   0  0  0  0  0  0  0  0  0  0  0  0
   -1.6874   -0.0756    0.0000 C   0  0  0  0  0  0  0  0  0  0  0  0
   -2.4944    0.0959    0.0000 C   0  0  0  0  0  0  0  0  0  0  0  0
   -2.9069   -0.6186    0.0000 C   0  0  0  0  0  0  0  0  0  0  0  0
   -3.7274   -0.7048    0.0000 C   0  0  0  0  0  0  0  0  0  0  0  0
   -4.2123   -0.0374    0.0000 N   0  0  0  0  0  0  0  0  0  0  0  0
   -5.0328   -0.1236    0.0000 C   0  0  0  0  0  0  0  0  0  0  0  0
   -5.3683   -0.8773    0.0000 C   0  0  0  0  0  0  0  0  0  0  0  0
   -5.5177    0.5438    0.0000 C   0  0  0  0  0  0  0  0  0  0  0  0
   -6.3382    0.4576    0.0000 C   0  0  0  0  0  0  0  0  0  0  0  0
   -6.8231    1.1250    0.0000 C   0  0  0  0  0  0  0  0  0  0  0  0
   -6.4875    1.8787    0.0000 C   0  0  0  0  0  0  0  0  0  0  0  0
   -5.6671    1.9649    0.0000 C   0  0  0  0  0  0  0  0  0  0  0  0
   -5.1821    1.2975    0.0000 C   0  0  0  0  0  0  0  0  0  0  0  0
   -6.9725    2.5461    0.0000 C   0  0  0  0  0  0  0  0  0  0  0  0
   -1.6012   -2.5461    0.0000 O   0  0  0  0  0  0  0  0  0  0  0  0
   -2.3157   -2.1336    0.0000 C   0  0  0  0  0  0  0  0  0  0  0  0
    1.2567   -2.5461    0.0000 Cl  0  0  0  0  0  0  0  0  0  0  0  0
    2.6856   -0.8961    0.0000 C   0  0  0  0  0  0  0  0  0  0  0  0
    3.4001   -1.3086    0.0000 C   0  0  0  0  0  0  0  0  0  0  0  0
    2.6856   -0.0711    0.0000 C   0  0  0  0  0  0  0  0  0  0  0  0
    3.4001    0.3414    0.0000 C   0  0  0  0  0  0  0  0  0  0  0  0
    3.4001    1.1664    0.0000 C   0  0  0  0  0  0  0  0  0  0  0  0
    4.1146    1.5789    0.0000 C   0  0  0  0  0  0  0  0  0  0  0  0
    4.8291    1.1664    0.0000 C   0  0  0  0  0  0  0  0  0  0  0  0
    4.8291    0.3414    0.0000 C   0  0  0  0  0  0  0  0  0  0  0  0
    4.1146   -0.0711    0.0000 C   0  0  0  0  0  0  0  0  0  0  0  0
    5.5435    1.5789    0.0000 C   0  0  0  0  0  0  0  0  0  0  0  0
    6.2580    1.9914    0.0000 N   0  0  0  0  0  0  0  0  0  0  0  0
    4.1146   -0.8961    0.0000 N   0  0  0  0  0  0  0  0  0  0  0  0
    4.8291   -1.3086    0.0000 C   0  0  0  0  0  0  0  0  0  0  0  0
    5.5435   -0.8961    0.0000 C   0  0  0  0  0  0  0  0  0  0  0  0
    6.2580   -1.3086    0.0000 C   0  0  0  0  0  0  0  0  0  0  0  0
    6.2580   -2.1336    0.0000 C   0  0  0  0  0  0  0  0  0  0  0  0
    5.5435   -2.5461    0.0000 C   0  0  0  0  0  0  0  0  0  0  0  0
    4.8291   -2.1336    0.0000 C   0  0  0  0  0  0  0  0  0  0  0  0
    6.9725   -2.5461    0.0000 N   0  0  0  0  0  0  0  0  0  0  0  0
  1  2  1  0      
  2  3  1  0      
  3  4  2  0      
  4  5  1  0      
  5  6  2  0      
  6  7  1  0      
  2  7  2  0      
  1  8  2  0      
  1  9  1  0      
 10 11  1  0      
 11 12  2  0      
 12 13  1  0      
 13 14  2  0      
 10 14  1  0      
 17 18  1  6      
 19 20  1  0      
 20 21  2  0      
 21 22  1  0      
 22 23  2  0      
 23 24  1  0      
 19 24  2  0      
 22 25  1  0      
 17 19  1  0      
 16 17  1  0      
 15 16  1  0      
 14 15  1  0      
  6 11  1  0      
 26 27  1  0      
  5 26  1  0      
  3 28  1  0      
 29 30  1  0      
 32 33  1  0      
 33 34  2  0      
 34 35  1  0      
 35 36  2  0      
 36 37  1  0      
 32 37  2  0      
 38 39  3  0      
 35 38  1  0      
 31 32  1  0      
 29 31  1  6      
 41 42  1  0      
 42 43  1  0      
 43 44  1  0      
 44 45  1  0      
 45 46  1  0      
 41 46  1  0      
 44 47  1  1      
 41 40  1  1      
 30 40  1  0      
  9 29  1  0      
M  END

>  <RackCode>
HYCPK72334

>  <Cat. No.>
HY-119254

>  <Product Name>
BAY-850

>  <ROW>
B

>  <COLUMN>
13

>  <CAS No.>
2099142-76-2

>  <MWt>
654.24

>  <Target>
Epigenetic Reader Domain

>  <Saltdate>
Free Base

>  <Smiles>
O=C(N[C@H](CC1=CC=C(C#N)C=C1)CN[C@H]2CC[C@@H](N)CC2)C3=CC(C4=CC=C(CN[C@@H](C5=CC=C(C)C=C5)C)O4)=C(OC)C=C3Cl

>  <Solvent>
DMSO Solution

>  <Batch No.>
57788

>  <Quantity>
10mM  * 50uL

>  <Pathway>
Epigenetics

>  <Synonyms>


>  <Formula>
C38H44ClN5O3

>  <Research_Area>
Metabolic Disease

>  <Clinical_Information>
No Development Reported

>  <SUPPLIER>
MedChemExpress

$$$$
Untitled Document
  ChemDraw05271908552D

 25 28  0  0  0  0  0  0  0  0999 V2000
   -1.9088    1.4391    0.0000 C   0  0  0  0  0  0  0  0  0  0  0  0
   -2.3213    0.7247    0.0000 C   0  0  0  0  0  0  0  0  0  0  0  0
   -1.9088    0.0102    0.0000 C   0  0  0  0  0  0  0  0  0  0  0  0
   -1.0838    0.0102    0.0000 C   0  0  0  0  0  0  0  0  0  0  0  0
   -0.6713    0.7247    0.0000 C   0  0  0  0  0  0  0  0  0  0  0  0
   -1.0838    1.4391    0.0000 C   0  0  0  0  0  0  0  0  0  0  0  0
   -3.1434    0.7247    0.0000 C   0  0  0  0  0  0  0  0  0  0  0  0
   -3.8628    1.1285    0.0000 O   0  0  0  0  0  0  0  0  0  0  0  0
   -3.8911    0.3049    0.0000 C   0  0  0  0  0  0  0  0  0  0  0  0
    0.1509    0.7247    0.0000 C   0  0  0  0  0  0  0  0  0  0  0  0
    0.5619    0.0127    0.0000 N   0  0  0  0  0  0  0  0  0  0  0  0
    0.1494   -0.7018    0.0000 C   0  0  0  0  0  0  0  0  0  0  0  0
    0.5619   -1.4163    0.0000 C   0  0  0  0  0  0  0  0  0  0  0  0
    1.3869   -1.4163    0.0000 C   0  0  0  0  0  0  0  0  0  0  0  0
    1.7994   -0.7018    0.0000 C   0  0  0  0  0  0  0  0  0  0  0  0
    1.3869    0.0127    0.0000 C   0  0  0  0  0  0  0  0  0  0  0  0
   -0.6727   -0.7018    0.0000 O   0  0  0  0  0  0  0  0  0  0  0  0
    2.6216   -0.7018    0.0000 C   0  0  0  0  0  0  0  0  0  0  0  0
    3.1065   -1.3692    0.0000 C   0  0  0  0  0  0  0  0  0  0  0  0
    3.8911   -1.1143    0.0000 O   0  0  0  0  0  0  0  0  0  0  0  0
    3.8911   -0.2893    0.0000 N   0  0  0  0  0  0  0  0  0  0  0  0
    3.1065   -0.0344    0.0000 C   0  0  0  0  0  0  0  0  0  0  0  0
    2.8525    0.7475    0.0000 C   0  0  0  0  0  0  0  0  0  0  0  0
    2.8525   -2.1511    0.0000 C   0  0  0  0  0  0  0  0  0  0  0  0
   -2.3198    2.1511    0.0000 F   0  0  0  0  0  0  0  0  0  0  0  0
  1  2  2  0      
  2  3  1  0      
  3  4  2  0      
  4  5  1  0      
  5  6  2  0      
  6  1  1  0      
  2  7  1  0      
  7  8  1  0      
  8  9  1  0      
  9  7  1  0      
  5 10  1  0      
 10 11  1  0      
 11 12  1  0      
 12 13  1  0      
 13 14  2  0      
 14 15  1  0      
 15 16  2  0      
 16 11  1  0      
 12 17  2  0      
 15 18  1  0      
 18 19  2  0      
 19 20  1  0      
 20 21  1  0      
 21 22  2  0      
 22 18  1  0      
 22 23  1  0      
 19 24  1  0      
  1 25  1  0      
M  END

>  <RackCode>
HYCPK72334

>  <Cat. No.>
HY-111978

>  <Product Name>
ZEN-3862

>  <ROW>
C

>  <COLUMN>
13

>  <CAS No.>
1952264-33-3

>  <MWt>
340.35

>  <Target>
Epigenetic Reader Domain

>  <Saltdate>
Free Base

>  <Smiles>
O=C(C=CC(C1=C(C)ON=C1C)=C2)N2CC3=CC(F)=C(C4OC4)C=C3

>  <Solvent>
DMSO Solution

>  <Batch No.>
308592

>  <Quantity>
10mM  * 50uL

>  <Pathway>
Epigenetics

>  <Synonyms>


>  <Formula>
C19H17FN2O3

>  <Research_Area>
Cancer

>  <Clinical_Information>
No Development Reported

>  <SUPPLIER>
MedChemExpress

$$$$
Untitled Document
  ChemDraw12291616352D

 38 43  0  0  0  0  0  0  0  0999 V2000
    0.1755    1.0395    0.0000 C   0  0  0  0  0  0  0  0  0  0  0  0
    0.6604    0.3720    0.0000 N   0  0  0  0  0  0  0  0  0  0  0  0
    0.1755   -0.2954    0.0000 C   0  0  0  0  0  0  0  0  0  0  0  0
   -0.6091   -0.0405    0.0000 C   0  0  0  0  0  0  0  0  0  0  0  0
   -1.3236   -0.4530    0.0000 C   0  0  0  0  0  0  0  0  0  0  0  0
   -2.0381   -0.0405    0.0000 C   0  0  0  0  0  0  0  0  0  0  0  0
   -2.0381    0.7845    0.0000 C   0  0  0  0  0  0  0  0  0  0  0  0
   -1.3236    1.1970    0.0000 C   0  0  0  0  0  0  0  0  0  0  0  0
   -0.6091    0.7845    0.0000 C   0  0  0  0  0  0  0  0  0  0  0  0
   -1.3236   -1.2780    0.0000 C   0  0  0  0  0  0  0  0  0  0  0  0
   -2.7525   -0.4530    0.0000 C   0  0  0  0  0  0  0  0  0  0  0  0
   -2.7525   -1.2780    0.0000 C   0  0  0  0  0  0  0  0  0  0  0  0
   -2.0381   -1.6905    0.0000 O   0  0  0  0  0  0  0  0  0  0  0  0
   -3.4670   -1.6905    0.0000 C   0  0  0  0  0  0  0  0  0  0  0  0
   -4.1815   -1.2780    0.0000 C   0  0  0  0  0  0  0  0  0  0  0  0
   -4.1815   -0.4530    0.0000 C   0  0  0  0  0  0  0  0  0  0  0  0
   -3.4670   -0.0405    0.0000 C   0  0  0  0  0  0  0  0  0  0  0  0
    0.4304    1.8241    0.0000 O   0  0  0  0  0  0  0  0  0  0  0  0
    0.4304   -1.0800    0.0000 O   0  0  0  0  0  0  0  0  0  0  0  0
   -0.4986   -1.2780    0.0000 C   0  0  0  0  0  0  0  0  0  0  0  0
   -0.9111   -1.9924    0.0000 C   0  0  0  0  0  0  0  0  0  0  0  0
   -4.8960   -1.6905    0.0000 O   0  0  0  0  0  0  0  0  0  0  0  0
   -5.6104   -1.2780    0.0000 C   0  0  0  0  0  0  0  0  0  0  0  0
   -3.4670   -2.5155    0.0000 O   0  0  0  0  0  0  0  0  0  0  0  0
    1.4854    0.3720    0.0000 C   0  0  0  0  0  0  0  0  0  0  0  0
    1.8979    1.0865    0.0000 C   0  0  0  0  0  0  0  0  0  0  0  0
    2.7229    1.0865    0.0000 C   0  0  0  0  0  0  0  0  0  0  0  0
    3.1354    0.3720    0.0000 C   0  0  0  0  0  0  0  0  0  0  0  0
    2.7229   -0.3424    0.0000 C   0  0  0  0  0  0  0  0  0  0  0  0
    1.8979   -0.3424    0.0000 C   0  0  0  0  0  0  0  0  0  0  0  0
    3.9604    0.3720    0.0000 C   0  0  0  0  0  0  0  0  0  0  0  0
    4.3729    1.0865    0.0000 C   0  0  0  0  0  0  0  0  0  0  0  0
    3.9604    1.8010    0.0000 C   0  0  0  0  0  0  0  0  0  0  0  0
    4.3729    2.5155    0.0000 C   0  0  0  0  0  0  0  0  0  0  0  0
    5.1979    2.5155    0.0000 C   0  0  0  0  0  0  0  0  0  0  0  0
    5.6104    1.8010    0.0000 C   0  0  0  0  0  0  0  0  0  0  0  0
    5.1979    1.0865    0.0000 C   0  0  0  0  0  0  0  0  0  0  0  0
    4.3729   -0.3424    0.0000 O   0  0  0  0  0  0  0  0  0  0  0  0
  1  2  1  0      
  2  3  1  0      
  3  4  1  0      
  4  5  1  0      
  5  6  2  0      
  6  7  1  0      
  7  8  2  0      
  8  9  1  0      
  1  9  1  0      
  4  9  2  0      
 11 12  1  0      
 12 13  1  0      
 10 13  1  0      
 14 15  1  0      
 15 16  2  0      
 16 17  1  0      
 11 17  2  0      
 12 14  2  0      
  5 10  1  0      
  6 11  1  0      
  1 18  2  0      
  3 19  2  0      
 10 20  1  0      
 10 21  1  0      
 22 23  1  0      
 15 22  1  0      
 14 24  1  0      
 25 26  1  0      
 26 27  2  0      
 27 28  1  0      
 28 29  2  0      
 29 30  1  0      
 25 30  2  0      
 31 32  1  0      
 32 33  1  0      
 33 34  2  0      
 34 35  1  0      
 35 36  2  0      
 36 37  1  0      
 32 37  2  0      
 31 38  2  0      
 28 31  1  0      
  2 25  1  0      
M  END

>  <RackCode>
HYCPK72334

>  <Cat. No.>
HY-12831

>  <Product Name>
Ampkinone

>  <ROW>
D

>  <COLUMN>
13

>  <CAS No.>
1233082-79-5

>  <MWt>
505.52

>  <Target>
AMPK

>  <Saltdate>
Free Base

>  <Smiles>
O=C1N(C2=CC=C(C(C3=CC=CC=C3)=O)C=C2)C(C4=C1C=CC5=C4C(C)(C)OC6=C(O)C(OC)=CC=C65)=O

>  <Solvent>
DMSO Solution

>  <Batch No.>
277572

>  <Quantity>
10mM  * 50uL

>  <Pathway>
Epigenetics; PI3K/Akt/mTOR

>  <Synonyms>


>  <Formula>
C31H23NO6

>  <Research_Area>
Metabolic Disease

>  <Clinical_Information>
No Development Reported

>  <SUPPLIER>
MedChemExpress

$$$$
Untitled Document
  ChemDraw12111511152D

 35 38  0  0  0  0  0  0  0  0999 V2000
   -1.7862    0.4125    0.0000 C   0  0  0  0  0  0  0  0  0  0  0  0
   -1.7862   -0.4125    0.0000 C   0  0  0  0  0  0  0  0  0  0  0  0
   -1.0717   -0.8250    0.0000 C   0  0  0  0  0  0  0  0  0  0  0  0
   -0.3572   -0.4125    0.0000 C   0  0  0  0  0  0  0  0  0  0  0  0
   -0.3572    0.4125    0.0000 N   0  0  0  0  0  0  0  0  0  0  0  0
   -1.0717    0.8250    0.0000 C   0  0  0  0  0  0  0  0  0  0  0  0
   -1.0717    1.6500    0.0000 O   0  0  0  0  0  0  0  0  0  0  0  0
    0.3572    0.8250    0.0000 C   0  0  0  0  0  0  0  0  0  0  0  0
    0.3572   -0.8250    0.0000 C   0  0  0  0  0  0  0  0  0  0  0  0
    0.3572   -1.6500    0.0000 C   0  0  0  0  0  0  0  0  0  0  0  0
    1.0717   -2.0625    0.0000 C   0  0  0  0  0  0  0  0  0  0  0  0
    1.7862   -1.6500    0.0000 C   0  0  0  0  0  0  0  0  0  0  0  0
    1.7862   -0.8250    0.0000 C   0  0  0  0  0  0  0  0  0  0  0  0
    1.0717   -0.4125    0.0000 C   0  0  0  0  0  0  0  0  0  0  0  0
    2.5006   -2.0625    0.0000 Cl  0  0  0  0  0  0  0  0  0  0  0  0
   -1.0717   -1.6500    0.0000 N   0  0  0  0  0  0  0  0  0  0  0  0
   -1.7862   -2.0625    0.0000 S   0  0  0  0  0  0  0  0  0  0  0  0
   -2.5006   -1.6500    0.0000 C   0  0  0  0  0  0  0  0  0  0  0  0
   -3.2151   -2.0625    0.0000 C   0  0  0  0  0  0  0  0  0  0  0  0
   -3.9296   -1.6500    0.0000 C   0  0  0  0  0  0  0  0  0  0  0  0
   -3.2151   -2.8875    0.0000 C   0  0  0  0  0  0  0  0  0  0  0  0
   -1.7862   -2.8875    0.0000 O   0  0  0  0  0  0  0  0  0  0  0  0
   -1.7862   -1.2375    0.0000 O   0  0  0  0  0  0  0  0  0  0  0  0
    1.0717    0.4125    0.0000 C   0  0  0  0  0  0  0  0  0  0  0  0
    1.7862    0.8250    0.0000 C   0  0  0  0  0  0  0  0  0  0  0  0
    1.7862    1.6500    0.0000 C   0  0  0  0  0  0  0  0  0  0  0  0
    1.0717    2.0625    0.0000 C   0  0  0  0  0  0  0  0  0  0  0  0
    0.3572    1.6500    0.0000 C   0  0  0  0  0  0  0  0  0  0  0  0
    2.5006    0.4125    0.0000 N   0  0  0  0  0  0  0  0  0  0  0  0
    3.2151    0.8250    0.0000 C   0  0  0  0  0  0  0  0  0  0  0  0
    3.2151    1.6500    0.0000 C   0  0  0  0  0  0  0  0  0  0  0  0
    2.5006    2.0625    0.0000 C   0  0  0  0  0  0  0  0  0  0  0  0
    2.5006    2.8875    0.0000 C   0  0  0  0  0  0  0  0  0  0  0  0
    2.5006   -0.4125    0.0000 C   0  0  0  0  0  0  0  0  0  0  0  0
    3.9296    0.4125    0.0000 O   0  0  0  0  0  0  0  0  0  0  0  0
  1  2  1  0      
  2  3  1  0      
  3  4  1  0      
  4  5  1  0      
  5  6  1  0      
  6  1  1  0      
  6  7  2  0      
  5  8  1  0      
  4  9  1  6      
  9 10  2  0      
 10 11  1  0      
 11 12  2  0      
 12 13  1  0      
 13 14  2  0      
 14  9  1  0      
 12 15  1  0      
  3 16  1  1      
 16 17  1  0      
 17 18  1  0      
 18 19  1  0      
 19 20  1  0      
 19 21  1  0      
 17 22  2  0      
 17 23  2  0      
  8 24  2  0      
 24 25  1  0      
 25 26  2  0      
 26 27  1  0      
 27 28  2  0      
 28  8  1  0      
 25 29  1  0      
 29 30  1  0      
 30 31  1  0      
 31 32  2  0      
 32 26  1  0      
 32 33  1  0      
 29 34  1  0      
 30 35  2  0      
M  END

>  <RackCode>
HYCPK72334

>  <Cat. No.>
HY-19553

>  <Product Name>
LP99

>  <ROW>
E

>  <COLUMN>
13

>  <CAS No.>
1808951-93-0

>  <MWt>
516.05

>  <Target>
Epigenetic Reader Domain

>  <Saltdate>
Free Base

>  <Smiles>
O=C1N(C2=CC(N(C)C(C=C3C)=O)=C3C=C2)[C@H](C4=CC=C(Cl)C=C4)[C@@H](NS(CC(C)C)(=O)=O)CC1

>  <Solvent>
DMSO Solution

>  <Batch No.>
211874

>  <Quantity>
10mM  * 50uL

>  <Pathway>
Epigenetics

>  <Synonyms>


>  <Formula>
C26H30ClN3O4S

>  <Research_Area>
Inflammation/Immunology

>  <Clinical_Information>
No Development Reported

>  <SUPPLIER>
MedChemExpress

$$$$
Untitled Document
  ChemDraw03231710562D

 42 46  0  0  0  0  0  0  0  0999 V2000
   -7.2837   -1.7555    0.0000 N   0  0  0  0  0  0  0  0  0  0  0  0
   -7.2837   -2.5805    0.0000 C   0  0  0  0  0  0  0  0  0  0  0  0
   -6.5693   -2.9930    0.0000 N   0  0  0  0  0  0  0  0  0  0  0  0
   -5.8548   -2.5805    0.0000 N   0  0  0  0  0  0  0  0  0  0  0  0
   -5.8548   -1.7555    0.0000 C   0  0  0  0  0  0  0  0  0  0  0  0
   -6.5693   -1.3430    0.0000 N   0  0  0  0  0  0  0  0  0  0  0  0
   -5.1403   -1.3430    0.0000 C   0  0  0  0  0  0  0  0  0  0  0  0
   -4.4259   -1.7555    0.0000 C   0  0  0  0  0  0  0  0  0  0  0  0
   -3.7114   -1.3430    0.0000 C   0  0  0  0  0  0  0  0  0  0  0  0
   -3.7114   -0.5180    0.0000 C   0  0  0  0  0  0  0  0  0  0  0  0
   -4.4259   -0.1055    0.0000 C   0  0  0  0  0  0  0  0  0  0  0  0
   -5.1403   -0.5180    0.0000 C   0  0  0  0  0  0  0  0  0  0  0  0
   -2.9969   -0.1055    0.0000 C   0  0  0  0  0  0  0  0  0  0  0  0
   -2.2824   -0.5180    0.0000 N   0  0  0  0  0  0  0  0  0  0  0  0
   -1.5680   -0.1055    0.0000 C   0  0  0  0  0  0  0  0  0  0  0  0
   -0.8535   -0.5180    0.0000 C   0  0  0  0  0  0  0  0  0  0  0  0
   -1.5680    0.7195    0.0000 O   0  0  0  0  0  0  0  0  0  0  0  0
   -0.1390   -0.1055    0.0000 C   0  0  0  0  0  0  0  0  0  0  0  0
    0.5754   -0.5180    0.0000 C   0  0  0  0  0  0  0  0  0  0  0  0
    1.2899   -0.1055    0.0000 C   0  0  0  0  0  0  0  0  0  0  0  0
    2.0044   -0.5180    0.0000 C   0  0  0  0  0  0  0  0  0  0  0  0
    2.7189   -0.1055    0.0000 O   0  0  0  0  0  0  0  0  0  0  0  0
   -7.9982   -2.9930    0.0000 C   0  0  0  0  0  0  0  0  0  0  0  0
    2.7122    0.7195    0.0000 C   0  0  0  0  0  0  0  0  0  0  0  0
    3.4287    1.1284    0.0000 C   0  0  0  0  0  0  0  0  0  0  0  0
    3.4287    1.9534    0.0000 C   0  0  0  0  0  0  0  0  0  0  0  0
    2.7122    2.3695    0.0000 C   0  0  0  0  0  0  0  0  0  0  0  0
    1.9956    1.9534    0.0000 C   0  0  0  0  0  0  0  0  0  0  0  0
    1.9956    1.1284    0.0000 C   0  0  0  0  0  0  0  0  0  0  0  0
    4.2133    0.8735    0.0000 C   0  0  0  0  0  0  0  0  0  0  0  0
    4.6982    1.5409    0.0000 N   0  0  0  0  0  0  0  0  0  0  0  0
    4.2133    2.2084    0.0000 C   0  0  0  0  0  0  0  0  0  0  0  0
    4.4682    2.9930    0.0000 O   0  0  0  0  0  0  0  0  0  0  0  0
    4.4682    0.0889    0.0000 O   0  0  0  0  0  0  0  0  0  0  0  0
    5.5232    1.5409    0.0000 C   0  0  0  0  0  0  0  0  0  0  0  0
    5.9357    0.8265    0.0000 C   0  0  0  0  0  0  0  0  0  0  0  0
    6.7607    0.8265    0.0000 C   0  0  0  0  0  0  0  0  0  0  0  0
    7.1732    1.5409    0.0000 C   0  0  0  0  0  0  0  0  0  0  0  0
    6.7607    2.2554    0.0000 N   0  0  0  0  0  0  0  0  0  0  0  0
    5.9357    2.2554    0.0000 C   0  0  0  0  0  0  0  0  0  0  0  0
    5.5232    2.9699    0.0000 O   0  0  0  0  0  0  0  0  0  0  0  0
    7.9982    1.5409    0.0000 O   0  0  0  0  0  0  0  0  0  0  0  0
  1  2  2  0      
  2  3  1  0      
  3  4  2  0      
  4  5  1  0      
  5  6  2  0      
  6  1  1  0      
  5  7  1  0      
  7  8  2  0      
  8  9  1  0      
  9 10  2  0      
 10 11  1  0      
 11 12  2  0      
 12  7  1  0      
 10 13  1  0      
 13 14  1  0      
 14 15  1  0      
 15 16  1  0      
 15 17  2  0      
 16 18  1  0      
 18 19  1  0      
 19 20  1  0      
 20 21  1  0      
 21 22  1  0      
  2 23  1  0      
 22 24  1  0      
 24 25  2  0      
 25 26  1  0      
 26 27  2  0      
 27 28  1  0      
 28 29  2  0      
 29 24  1  0      
 25 30  1  0      
 30 31  1  0      
 31 32  1  0      
 32 26  1  0      
 32 33  2  0      
 30 34  2  0      
 31 35  1  0      
 35 36  1  0      
 36 37  1  0      
 37 38  1  0      
 38 39  1  0      
 39 40  1  0      
 40 35  1  0      
 40 41  2  0      
 38 42  2  0      
M  END

>  <RackCode>
HYCPK72334

>  <Cat. No.>
HY-101460

>  <Product Name>
Tz-Thalidomide

>  <ROW>
F

>  <COLUMN>
13

>  <CAS No.>
2087490-42-2

>  <MWt>
571.58

>  <Target>
Epigenetic Reader Domain; Molecular Glues; PROTACs

>  <Saltdate>


>  <Smiles>
O=C(CCCCCOC1=C(C(N(C2CCC(NC2=O)=O)C3=O)=O)C3=CC=C1)NCC(C=C4)=CC=C4C5=NN=C(C)N=N5

>  <Solvent>
DMSO Solution

>  <Batch No.>
249636

>  <Quantity>
10mM  * 50uL

>  <Pathway>
Epigenetics; PROTAC

>  <Synonyms>


>  <Formula>
C29H29N7O6

>  <Research_Area>
Cancer

>  <Clinical_Information>
No Development Reported

>  <SUPPLIER>
MedChemExpress

$$$$
Untitled Document
  ChemDraw12111716552D

 48 52  0  0  0  0  0  0  0  0999 V2000
    2.4749    1.9331    0.0000 C   0  0  0  0  0  0  0  0  0  0  0  0
    1.6527    1.9331    0.0000 C   0  0  0  0  0  0  0  0  0  0  0  0
    1.2417    1.2211    0.0000 C   0  0  0  0  0  0  0  0  0  0  0  0
    1.8994    0.0820    0.0000 C   0  0  0  0  0  0  0  0  0  0  0  0
    2.8859    1.2211    0.0000 O   0  0  0  0  0  0  0  0  0  0  0  0
    2.8859    2.6451    0.0000 O   0  0  0  0  0  0  0  0  0  0  0  0
    1.2417    2.6451    0.0000 C   0  0  0  0  0  0  0  0  0  0  0  0
    2.4920   -1.8230    0.0000 C   0  0  0  0  0  0  0  0  0  0  0  0
    3.2064   -1.4105    0.0000 C   0  0  0  0  0  0  0  0  0  0  0  0
    3.9209   -1.8230    0.0000 C   0  0  0  0  0  0  0  0  0  0  0  0
    4.6354   -1.4105    0.0000 C   0  0  0  0  0  0  0  0  0  0  0  0
    4.6354   -0.5855    0.0000 C   0  0  0  0  0  0  0  0  0  0  0  0
    3.9209   -0.1730    0.0000 C   0  0  0  0  0  0  0  0  0  0  0  0
    3.2064   -0.5855    0.0000 C   0  0  0  0  0  0  0  0  0  0  0  0
    2.4920   -0.1730    0.0000 O   0  0  0  0  0  0  0  0  0  0  0  0
    1.7775   -0.5855    0.0000 C   0  0  0  0  0  0  0  0  0  0  0  0
    1.0630   -0.1730    0.0000 C   0  0  0  0  0  0  0  0  0  0  0  0
    0.3486   -0.5855    0.0000 C   0  0  0  0  0  0  0  0  0  0  0  0
    0.3486   -1.4105    0.0000 C   0  0  0  0  0  0  0  0  0  0  0  0
    1.0630   -1.8230    0.0000 C   0  0  0  0  0  0  0  0  0  0  0  0
    1.7775   -1.4105    0.0000 C   0  0  0  0  0  0  0  0  0  0  0  0
    3.0842    0.8230    0.0000 O   0  0  0  0  0  0  0  0  0  0  0  0
    3.8912    0.6515    0.0000 C   0  0  0  0  0  0  0  0  0  0  0  0
    2.7215    0.0820    0.0000 C   0  0  0  0  0  0  0  0  0  0  0  0
    3.7333   -1.1086    0.0000 C   0  0  0  0  0  0  0  0  0  0  0  0
    3.3222   -1.8206    0.0000 O   0  0  0  0  0  0  0  0  0  0  0  0
    2.4920   -2.6451    0.0000 O   0  0  0  0  0  0  0  0  0  0  0  0
    1.0630    0.6492    0.0000 C   0  0  0  0  0  0  0  0  0  0  0  0
    0.3510    1.0602    0.0000 C   0  0  0  0  0  0  0  0  0  0  0  0
    0.3510    1.8824    0.0000 C   0  0  0  0  0  0  0  0  0  0  0  0
    1.0630    2.2934    0.0000 C   0  0  0  0  0  0  0  0  0  0  0  0
   -0.3610    2.2934    0.0000 C   0  0  0  0  0  0  0  0  0  0  0  0
    4.1720    1.4242    0.0000 C   0  0  0  0  0  0  0  0  0  0  0  0
    4.7008    0.7947    0.0000 C   0  0  0  0  0  0  0  0  0  0  0  0
   -0.3634   -0.1744    0.0000 O   0  0  0  0  0  0  0  0  0  0  0  0
    1.0630   -2.6451    0.0000 O   0  0  0  0  0  0  0  0  0  0  0  0
   -0.3634   -1.8216    0.0000 C   0  0  0  0  0  0  0  0  0  0  0  0
   -1.0754   -1.4105    0.0000 C   0  0  0  0  0  0  0  0  0  0  0  0
   -1.7874   -1.8216    0.0000 C   0  0  0  0  0  0  0  0  0  0  0  0
   -2.4994   -1.4105    0.0000 C   0  0  0  0  0  0  0  0  0  0  0  0
   -3.2114   -1.8216    0.0000 C   0  0  0  0  0  0  0  0  0  0  0  0
   -3.9234   -1.4105    0.0000 C   0  0  0  0  0  0  0  0  0  0  0  0
   -4.6354   -1.8216    0.0000 C   0  0  0  0  0  0  0  0  0  0  0  0
   -4.6354   -2.6437    0.0000 C   0  0  0  0  0  0  0  0  0  0  0  0
   -5.3474   -1.4105    0.0000 C   0  0  0  0  0  0  0  0  0  0  0  0
   -1.7874   -2.6437    0.0000 C   0  0  0  0  0  0  0  0  0  0  0  0
    4.6329    0.2381    0.0000 H   0  0  0  0  0  0  0  0  0  0  0  0
    5.3474   -1.8216    0.0000 H   0  0  0  0  0  0  0  0  0  0  0  0
  1  2  1  0      
  2  3  2  0      
  3  4  1  0      
  1  5  2  0      
  1  6  1  0      
  2  7  1  0      
  8  9  1  0      
  9 10  2  0      
 10 11  1  0      
 11 12  1  0      
 12 13  1  0      
 13 14  1  0      
  9 14  1  0      
 14 15  1  1      
 15 16  1  0      
 16 17  1  0      
 17 18  2  0      
 18 19  1  0      
 19 20  2  0      
 20 21  1  0      
 16 21  2  0      
  8 21  1  0      
 22 23  1  0      
 22 24  1  0      
 13 23  1  0      
 14 24  1  0      
 24 25  1  6      
 11 25  1  6      
 25 26  2  0      
  8 27  2  0      
 28 29  1  0      
 29 30  2  0      
 30 31  1  0      
 30 32  1  0      
 17 28  1  0      
 23 33  1  0      
 23 34  1  0      
 18 35  1  0      
 20 36  1  0      
 37 38  1  0      
 38 39  2  0      
 39 40  1  0      
 40 41  1  0      
 41 42  1  0      
 42 43  2  0      
 43 44  1  0      
 43 45  1  0      
 39 46  1  0      
 19 37  1  0      
  4 24  1  0      
 13 47  1  1      
 11 48  1  0      
M  END

>  <RackCode>
HYCPK72334

>  <Cat. No.>
HY-N5024

>  <Product Name>
Gambogenic acid

>  <ROW>
G

>  <COLUMN>
13

>  <CAS No.>
173932-75-7

>  <MWt>
630.77

>  <Target>
Histone Methyltransferase

>  <Saltdate>
Free Acid

>  <Smiles>
O=C(O)/C(C)=C\C[C@@]1(C2=O)OC(C)(C)[C@]([C@]31OC4=C5C(O)=C(C/C=C(C)/CC/C=C(C)\C)C(O)=C4C/C=C(C)\C)([H])C[C@@]2([H])C=C3C5=O

>  <Solvent>
DMSO Solution

>  <Batch No.>
265616

>  <Quantity>
10mM  * 50uL

>  <Pathway>
Epigenetics

>  <Synonyms>


>  <Formula>
C38H46O8

>  <Research_Area>
Cancer

>  <Clinical_Information>
No Development Reported

>  <SUPPLIER>
MedChemExpress

$$$$
Untitled Document
  ChemDraw08021609502D

 31 34  0  0  0  0  0  0  0  0999 V2000
   -3.5694    2.2653    0.0000 C   0  0  0  0  0  0  0  0  0  0  0  0
   -3.5694    1.4395    0.0000 C   0  0  0  0  0  0  0  0  0  0  0  0
   -2.8550    1.0270    0.0000 C   0  0  0  0  0  0  0  0  0  0  0  0
   -2.1405    1.4395    0.0000 C   0  0  0  0  0  0  0  0  0  0  0  0
   -2.1405    2.2653    0.0000 C   0  0  0  0  0  0  0  0  0  0  0  0
   -2.8550    2.6778    0.0000 C   0  0  0  0  0  0  0  0  0  0  0  0
   -4.2814    2.6763    0.0000 Cl  0  0  0  0  0  0  0  0  0  0  0  0
   -1.4277    1.0284    0.0000 N   0  0  0  0  0  0  0  0  0  0  0  0
   -2.1430   -0.2062    0.0000 C   0  0  0  0  0  0  0  0  0  0  0  0
   -2.1430   -1.0313    0.0000 C   0  0  0  0  0  0  0  0  0  0  0  0
   -1.4277   -1.4437    0.0000 N   0  0  0  0  0  0  0  0  0  0  0  0
   -0.7132   -1.0313    0.0000 C   0  0  0  0  0  0  0  0  0  0  0  0
   -0.7132   -0.2062    0.0000 C   0  0  0  0  0  0  0  0  0  0  0  0
   -1.4277    0.2063    0.0000 C   0  0  0  0  0  0  0  0  0  0  0  0
   -2.8550   -1.4423    0.0000 C   0  0  0  0  0  0  0  0  0  0  0  0
   -1.4277   -2.2667    0.0000 C   0  0  0  0  0  0  0  0  0  0  0  0
   -0.7157   -2.6778    0.0000 C   0  0  0  0  0  0  0  0  0  0  0  0
   -2.1405   -2.6778    0.0000 O   0  0  0  0  0  0  0  0  0  0  0  0
    0.0012   -1.4437    0.0000 C   0  0  0  0  0  0  0  0  0  0  0  0
    0.7157   -1.0313    0.0000 C   0  0  0  0  0  0  0  0  0  0  0  0
    0.7157   -0.2062    0.0000 C   0  0  0  0  0  0  0  0  0  0  0  0
    0.0012    0.2063    0.0000 C   0  0  0  0  0  0  0  0  0  0  0  0
    1.4277    0.2048    0.0000 C   0  0  0  0  0  0  0  0  0  0  0  0
    2.1430   -0.2077    0.0000 C   0  0  0  0  0  0  0  0  0  0  0  0
    2.8574    0.2048    0.0000 C   0  0  0  0  0  0  0  0  0  0  0  0
    2.8574    1.0298    0.0000 C   0  0  0  0  0  0  0  0  0  0  0  0
    2.1430    1.4423    0.0000 C   0  0  0  0  0  0  0  0  0  0  0  0
    1.4277    1.0298    0.0000 C   0  0  0  0  0  0  0  0  0  0  0  0
    3.5694    1.4409    0.0000 C   0  0  0  0  0  0  0  0  0  0  0  0
    4.2814    1.0298    0.0000 O   0  0  0  0  0  0  0  0  0  0  0  0
    3.5694    2.2638    0.0000 O   0  0  0  0  0  0  0  0  0  0  0  0
  1  2  2  0      
  2  3  1  0      
  3  4  2  0      
  4  5  1  0      
  5  6  2  0      
  6  1  1  0      
  1  7  1  0      
  4  8  1  0      
  9 10  1  0      
 10 11  1  0      
 11 12  1  0      
 12 13  2  0      
 13 14  1  0      
 14  9  1  0      
 14  8  1  1      
 10 15  1  1      
 11 16  1  0      
 16 17  1  0      
 16 18  2  0      
 12 19  1  0      
 19 20  2  0      
 20 21  1  0      
 21 22  2  0      
 22 13  1  0      
 21 23  1  0      
 23 24  2  0      
 24 25  1  0      
 25 26  2  0      
 26 27  1  0      
 27 28  2  0      
 28 23  1  0      
 26 29  1  0      
 29 30  1  0      
 29 31  2  0      
M  END

>  <RackCode>
HYCPK72334

>  <Cat. No.>
HY-13960

>  <Product Name>
GSK1324726A

>  <ROW>
H

>  <COLUMN>
13

>  <CAS No.>
1300031-52-0

>  <MWt>
434.91

>  <Target>
Apoptosis; Epigenetic Reader Domain

>  <Saltdate>
Free Acid

>  <Smiles>
ClC1=CC=C(N[C@H]2C3=C(C=CC(C4=CC=C(C(O)=O)C=C4)=C3)N(C(C)=O)[C@@H](C)C2)C=C1

>  <Solvent>
DMSO Solution

>  <Batch No.>
10942

>  <Quantity>
10mM  * 50uL

>  <Pathway>
Apoptosis; Epigenetics

>  <Synonyms>
I-BET726

>  <Formula>
C25H23ClN2O3

>  <Research_Area>
Cancer

>  <Clinical_Information>
No Development Reported

>  <SUPPLIER>
MedChemExpress

$$$$
Untitled Document
  ChemDraw10202215342D

 27 28  0  0  0  0  0  0  0  0999 V2000
    0.3572    0.8250    0.0000 O   0  0  0  0  0  0  0  0  0  0  0  0
    0.3572    0.0000    0.0000 C   0  0  0  0  0  0  0  0  0  0  0  0
   -0.3572   -0.4125    0.0000 C   0  0  0  0  0  0  0  0  0  0  0  0
   -1.0717    0.0000    0.0000 C   0  0  0  0  0  0  0  0  0  0  0  0
   -1.7861   -0.4125    0.0000 C   0  0  0  0  0  0  0  0  0  0  0  0
   -2.5005    0.0000    0.0000 C   0  0  0  0  0  0  0  0  0  0  0  0
   -3.2150   -0.4125    0.0000 C   0  0  0  0  0  0  0  0  0  0  0  0
   -3.2150   -1.2375    0.0000 C   0  0  0  0  0  0  0  0  0  0  0  0
   -3.9295   -1.6500    0.0000 C   0  0  0  0  0  0  0  0  0  0  0  0
   -3.9295   -2.4749    0.0000 F   0  0  0  0  0  0  0  0  0  0  0  0
   -4.6440   -2.0624    0.0000 F   0  0  0  0  0  0  0  0  0  0  0  0
   -4.6440   -1.2375    0.0000 F   0  0  0  0  0  0  0  0  0  0  0  0
   -2.5005   -1.6500    0.0000 C   0  0  0  0  0  0  0  0  0  0  0  0
   -1.7861   -1.2375    0.0000 C   0  0  0  0  0  0  0  0  0  0  0  0
    1.0717   -0.4125    0.0000 N   0  0  0  0  0  0  0  0  0  0  0  0
    1.7861    0.0000    0.0000 C   0  0  0  0  0  0  0  0  0  0  0  0
    1.7861    0.8250    0.0000 C   0  0  0  0  0  0  0  0  0  0  0  0
    2.5005    1.2375    0.0000 C   0  0  0  0  0  0  0  0  0  0  0  0
    3.2150    0.8250    0.0000 C   0  0  0  0  0  0  0  0  0  0  0  0
    3.9295    1.2375    0.0000 C   0  0  0  0  0  0  0  0  0  0  0  0
    3.9295    2.0624    0.0000 C   0  0  0  0  0  0  0  0  0  0  0  0
    4.6440    2.4749    0.0000 F   0  0  0  0  0  0  0  0  0  0  0  0
    3.2150    2.4749    0.0000 C   0  0  0  0  0  0  0  0  0  0  0  0
    2.5005    2.0624    0.0000 C   0  0  0  0  0  0  0  0  0  0  0  0
    2.5005   -0.4125    0.0000 C   0  0  0  0  0  0  0  0  0  0  0  0
    2.5005   -1.2375    0.0000 O   0  0  0  0  0  0  0  0  0  0  0  0
    3.2150    0.0000    0.0000 O   0  0  0  0  0  0  0  0  0  0  0  0
  1  2  2  0      
  2  3  1  0      
  3  4  2  0      
  4  5  1  0      
  5  6  2  0      
  6  7  1  0      
  7  8  2  0      
  8  9  1  0      
  9 10  1  0      
  9 11  1  0      
  9 12  1  0      
  8 13  1  0      
 13 14  2  0      
  5 14  1  0      
  2 15  1  0      
 16 17  1  0      
 17 18  1  0      
 18 19  2  0      
 19 20  1  0      
 20 21  2  0      
 21 22  1  0      
 21 23  1  0      
 23 24  2  0      
 18 24  1  0      
 16 25  1  0      
 25 26  2  0      
 25 27  1  0      
 16 15  1  1      
M  END

>  <RackCode>
HYCPK72334

>  <Cat. No.>
HY-151527

>  <Product Name>
PI3K/Akt/CREB activator 1

>  <ROW>
I

>  <COLUMN>
13

>  <CAS No.>
2708177-73-3

>  <MWt>
381.32

>  <Target>
Akt; Epigenetic Reader Domain; PI3K

>  <Saltdate>


>  <Smiles>
O=C(N[C@H](C(O)=O)CC1=CC=C(C=C1)F)/C=C/C2=CC=C(C=C2)C(F)(F)F

>  <Solvent>
DMSO Solution

>  <Batch No.>
256200

>  <Quantity>
10mM  * 50uL

>  <Pathway>
Epigenetics; PI3K/Akt/mTOR

>  <Synonyms>


>  <Formula>
C19H15F4NO3

>  <Research_Area>
Neurological Disease

>  <Clinical_Information>
No Development Reported

>  <SUPPLIER>
MedChemExpress

$$$$
Untitled Document
  ChemDraw02032310442D

 28 31  0  0  0  0  0  0  0  0999 V2000
    0.2899   -1.9490    0.0000 N   0  0  0  0  0  0  0  0  0  0  0  0
    0.1282   -1.1400    0.0000 C   0  0  0  0  0  0  0  0  0  0  0  0
   -0.0335   -0.3310    0.0000 C   0  0  0  0  0  0  0  0  0  0  0  0
    0.5863    0.2135    0.0000 C   0  0  0  0  0  0  0  0  0  0  0  0
   -0.1951    0.4780    0.0000 N   0  0  0  0  0  0  0  0  0  0  0  0
   -0.4405    1.2657    0.0000 N   0  0  0  0  0  0  0  0  0  0  0  0
   -1.2654    1.2757    0.0000 C   0  0  0  0  0  0  0  0  0  0  0  0
   -1.7422    1.9490    0.0000 N   0  0  0  0  0  0  0  0  0  0  0  0
   -1.5299    0.4943    0.0000 C   0  0  0  0  0  0  0  0  0  0  0  0
   -0.8684    0.0012    0.0000 C   0  0  0  0  0  0  0  0  0  0  0  0
   -2.3176    0.2489    0.0000 C   0  0  0  0  0  0  0  0  0  0  0  0
   -2.9239    0.8084    0.0000 N   0  0  0  0  0  0  0  0  0  0  0  0
   -3.7116    0.5631    0.0000 C   0  0  0  0  0  0  0  0  0  0  0  0
   -3.8929   -0.2418    0.0000 N   0  0  0  0  0  0  0  0  0  0  0  0
   -3.2866   -0.8012    0.0000 C   0  0  0  0  0  0  0  0  0  0  0  0
   -3.2967   -1.6262    0.0000 N   0  0  0  0  0  0  0  0  0  0  0  0
   -2.5152   -1.8907    0.0000 C   0  0  0  0  0  0  0  0  0  0  0  0
   -2.0222   -1.2292    0.0000 C   0  0  0  0  0  0  0  0  0  0  0  0
   -2.4990   -0.5559    0.0000 C   0  0  0  0  0  0  0  0  0  0  0  0
    1.0441    0.8999    0.0000 C   0  0  0  0  0  0  0  0  0  0  0  0
    1.7304    0.4421    0.0000 N   0  0  0  0  0  0  0  0  0  0  0  0
    1.2727   -0.2442    0.0000 C   0  0  0  0  0  0  0  0  0  0  0  0
    2.5394    0.6038    0.0000 S   0  0  0  0  0  0  0  0  0  0  0  0
    2.7011   -0.2052    0.0000 O   0  0  0  0  0  0  0  0  0  0  0  0
    2.3778    1.4128    0.0000 O   0  0  0  0  0  0  0  0  0  0  0  0
    3.3484    0.7655    0.0000 C   0  0  0  0  0  0  0  0  0  0  0  0
    3.6129    1.5469    0.0000 C   0  0  0  0  0  0  0  0  0  0  0  0
    3.8929    0.1457    0.0000 C   0  0  0  0  0  0  0  0  0  0  0  0
  1  2  3  0      
  2  3  1  0      
  3  4  1  0      
  4  5  1  0      
  5  6  1  0      
  6  7  2  0      
  7  8  1  0      
  7  9  1  0      
  9 10  2  0      
  5 10  1  0      
  9 11  1  0      
 11 12  1  0      
 12 13  2  0      
 13 14  1  0      
 14 15  2  0      
 15 16  1  0      
 16 17  1  0      
 17 18  2  0      
 18 19  1  0      
 15 19  1  0      
 11 19  2  0      
  4 20  1  0      
 20 21  1  0      
 21 22  1  0      
  4 22  1  0      
 21 23  1  0      
 23 24  2  0      
 23 25  2  0      
 23 26  1  0      
 26 27  1  0      
 26 28  1  0      
M  END

>  <RackCode>
HYCPK72334

>  <Cat. No.>
HY-148791

>  <Product Name>
Pumecitinib

>  <ROW>
J

>  <COLUMN>
13

>  <CAS No.>
2401057-12-1

>  <MWt>
400.46

>  <Target>
JAK

>  <Saltdate>


>  <Smiles>
N#CCC1(CN(S(=O)(C(C)C)=O)C1)N2N=C(C(C3=C4C=CNC4=NC=N3)=C2)N

>  <Solvent>
DMSO Solution

>  <Batch No.>
252348

>  <Quantity>
10mM  * 50uL

>  <Pathway>
Epigenetics; JAK/STAT Signaling; Protein Tyrosine Kinase/RTK; Stem Cell/Wnt

>  <Synonyms>
PG-011

>  <Formula>
C17H20N8O2S

>  <Research_Area>
Cancer; Inflammation/Immunology

>  <Clinical_Information>
No Development Reported

>  <SUPPLIER>
MedChemExpress

$$$$
Untitled Document
  ChemDraw04162012372D

 19 21  0  0  0  0  0  0  0  0999 V2000
    3.8190    1.4185    0.0000 C   0  0  0  0  0  0  0  0  0  0  0  0
    3.7328    0.5981    0.0000 C   0  0  0  0  0  0  0  0  0  0  0  0
    3.0653    1.7541    0.0000 C   0  0  0  0  0  0  0  0  0  0  0  0
    2.9258    0.4265    0.0000 C   0  0  0  0  0  0  0  0  0  0  0  0
   -1.6757   -1.3416    0.0000 C   0  0  0  0  0  0  0  0  0  0  0  0
   -2.3900   -0.1041    0.0000 C   0  0  0  0  0  0  0  0  0  0  0  0
   -2.3900   -1.7541    0.0000 C   0  0  0  0  0  0  0  0  0  0  0  0
   -3.1045   -0.5166    0.0000 C   0  0  0  0  0  0  0  0  0  0  0  0
   -0.8750    0.7164    0.0000 C   0  0  0  0  0  0  0  0  0  0  0  0
   -1.6757   -0.5166    0.0000 C   0  0  0  0  0  0  0  0  0  0  0  0
   -3.1045   -1.3416    0.0000 C   0  0  0  0  0  0  0  0  0  0  0  0
    2.5133    1.1410    0.0000 C   0  0  0  0  0  0  0  0  0  0  0  0
   -0.9612   -0.1041    0.0000 C   0  0  0  0  0  0  0  0  0  0  0  0
    0.3445    0.1734    0.0000 C   0  0  0  0  0  0  0  0  0  0  0  0
   -3.8190   -1.7541    0.0000 Cl  0  0  0  0  0  0  0  0  0  0  0  0
   -0.2075   -0.4397    0.0000 N   0  0  0  0  0  0  0  0  0  0  0  0
    1.6929    1.2272    0.0000 N   0  0  0  0  0  0  0  0  0  0  0  0
    1.1650    0.0872    0.0000 N   0  0  0  0  0  0  0  0  0  0  0  0
   -0.0680    0.8879    0.0000 S   0  0  0  0  0  0  0  0  0  0  0  0
  2  1  1  0      
  3  1  1  0      
  4  2  1  0      
  7  5  1  0      
  8  6  2  0      
 10  5  2  0      
 10  6  1  0      
 11  7  2  0      
 11  8  1  0      
 12  3  1  0      
 12  4  1  0      
 13  9  2  0      
 13 10  1  0      
 15 11  1  0      
 16 13  1  0      
 16 14  2  0      
 17 12  2  0      
 18 14  1  0      
 18 17  1  0      
 19  9  1  0      
 19 14  1  0      
M  END

>  <RackCode>
HYCPK72334

>  <Cat. No.>
HY-W013274

>  <Product Name>
CPTH2

>  <ROW>
K

>  <COLUMN>
13

>  <CAS No.>
357649-93-5

>  <MWt>
291.80

>  <Target>
Apoptosis; Histone Acetyltransferase

>  <Saltdate>


>  <Smiles>
ClC1=CC=C(C2=CSC(N/N=C3CCCC/3)=N2)C=C1

>  <Solvent>
DMSO Solution

>  <Batch No.>
103026

>  <Quantity>
10mM  * 50uL

>  <Pathway>
Apoptosis; Epigenetics

>  <Synonyms>


>  <Formula>
C14H14ClN3S

>  <Research_Area>
Cancer

>  <Clinical_Information>
No Development Reported

>  <SUPPLIER>
MedChemExpress

$$$$
Untitled Document
  ChemDraw05101917272D

 20 20  0  0  0  0  0  0  0  0999 V2000
   -4.3974   -1.4437    0.0000 C   0  0  0  0  0  0  0  0  0  0  0  0
   -3.6829   -1.0312    0.0000 C   0  0  0  0  0  0  0  0  0  0  0  0
   -3.6829   -0.2062    0.0000 C   0  0  0  0  0  0  0  0  0  0  0  0
   -2.9684    0.2063    0.0000 C   0  0  0  0  0  0  0  0  0  0  0  0
   -2.2539   -0.2062    0.0000 C   0  0  0  0  0  0  0  0  0  0  0  0
   -1.5395    0.2062    0.0000 O   0  0  0  0  0  0  0  0  0  0  0  0
   -0.8250   -0.2062    0.0000 C   0  0  0  0  0  0  0  0  0  0  0  0
   -0.1105    0.2062    0.0000 C   0  0  0  0  0  0  0  0  0  0  0  0
    0.6039   -0.2062    0.0000 S   0  0  0  0  0  0  0  0  0  0  0  0
    1.3184    0.2062    0.0000 C   0  0  0  0  0  0  0  0  0  0  0  0
    1.3184    1.0312    0.0000 N   0  0  0  0  0  0  0  0  0  0  0  0
    2.0329    1.4437    0.0000 C   0  0  0  0  0  0  0  0  0  0  0  0
    2.7474    1.0312    0.0000 C   0  0  0  0  0  0  0  0  0  0  0  0
    2.7474    0.2062    0.0000 C   0  0  0  0  0  0  0  0  0  0  0  0
    2.0329   -0.2062    0.0000 N   0  0  0  0  0  0  0  0  0  0  0  0
   -2.2539   -1.0312    0.0000 C   0  0  0  0  0  0  0  0  0  0  0  0
   -1.5395   -1.4437    0.0000 Br  0  0  0  0  0  0  0  0  0  0  0  0
   -2.9684   -1.4437    0.0000 C   0  0  0  0  0  0  0  0  0  0  0  0
    3.5724   -0.0000    0.0000 H   0  0  0  0  0  0  0  0  0  0  0  0
    4.3974   -0.0000    0.0000 Cl  0  0  0  0  0  0  0  0  0  0  0  0
  1  2  1  0      
  2  3  2  0      
  3  4  1  0      
  4  5  2  0      
  5  6  1  0      
  6  7  1  0      
  7  8  1  0      
  8  9  1  0      
  9 10  1  0      
 10 11  2  0      
 11 12  1  0      
 12 13  2  0      
 13 14  1  0      
 14 15  2  0      
 10 15  1  0      
  5 16  1  0      
 16 17  1  0      
 16 18  2  0      
  2 18  1  0      
 19 20  1  0      
M  END

>  <RackCode>
HYCPK72334

>  <Cat. No.>
HY-16708A

>  <Product Name>
ZLN024 (hydrochloride)

>  <ROW>
L

>  <COLUMN>
13

>  <CAS No.>
1883548-91-1

>  <MWt>
361.69

>  <Target>
AMPK

>  <Saltdate>
Hydrochloride

>  <Smiles>
CC1=CC=C(OCCSC2=NC=CC=N2)C(Br)=C1.[H]Cl

>  <Solvent>
DMSO Solution

>  <Batch No.>
14644

>  <Quantity>
10mM  * 50uL

>  <Pathway>
Epigenetics; PI3K/Akt/mTOR

>  <Synonyms>


>  <Formula>
C13H14BrClN2OS

>  <Research_Area>
Metabolic Disease

>  <Clinical_Information>
No Development Reported

>  <SUPPLIER>
MedChemExpress

$$$$
Untitled Document
  ChemDraw06021615402D

 33 36  0  0  0  0  0  0  0  0999 V2000
   -2.1338   -2.0625    0.0000 C   0  0  0  0  0  0  0  0  0  0  0  0
   -1.4193   -1.6500    0.0000 C   0  0  0  0  0  0  0  0  0  0  0  0
   -1.4193   -0.8250    0.0000 C   0  0  0  0  0  0  0  0  0  0  0  0
   -2.1338   -0.4125    0.0000 C   0  0  0  0  0  0  0  0  0  0  0  0
   -2.8483   -0.8250    0.0000 C   0  0  0  0  0  0  0  0  0  0  0  0
   -2.8483   -1.6500    0.0000 N   0  0  0  0  0  0  0  0  0  0  0  0
   -0.6347   -1.9049    0.0000 C   0  0  0  0  0  0  0  0  0  0  0  0
   -0.1498   -1.2375    0.0000 C   0  0  0  0  0  0  0  0  0  0  0  0
   -0.6347   -0.5701    0.0000 S   0  0  0  0  0  0  0  0  0  0  0  0
    0.6752   -1.2375    0.0000 C   0  0  0  0  0  0  0  0  0  0  0  0
    1.0877   -1.9520    0.0000 N   0  0  0  0  0  0  0  0  0  0  0  0
    1.0877   -0.5230    0.0000 N   0  0  0  0  0  0  0  0  0  0  0  0
   -2.1338    0.4125    0.0000 C   0  0  0  0  0  0  0  0  0  0  0  0
   -2.8483    0.8250    0.0000 C   0  0  0  0  0  0  0  0  0  0  0  0
   -2.8483    1.6500    0.0000 C   0  0  0  0  0  0  0  0  0  0  0  0
   -2.1338    2.0625    0.0000 C   0  0  0  0  0  0  0  0  0  0  0  0
   -1.4193    1.6500    0.0000 C   0  0  0  0  0  0  0  0  0  0  0  0
   -1.4193    0.8250    0.0000 C   0  0  0  0  0  0  0  0  0  0  0  0
   -3.5627    2.0625    0.0000 C   0  0  0  0  0  0  0  0  0  0  0  0
   -3.5627    2.8875    0.0000 F   0  0  0  0  0  0  0  0  0  0  0  0
   -4.2772    2.4750    0.0000 F   0  0  0  0  0  0  0  0  0  0  0  0
   -4.2772    1.6500    0.0000 F   0  0  0  0  0  0  0  0  0  0  0  0
    3.1502   -1.2375    0.0000 C   0  0  0  0  0  0  0  0  0  0  0  0
    2.3252   -1.2375    0.0000 C   0  0  0  0  0  0  0  0  0  0  0  0
    1.9127   -0.5230    0.0000 C   0  0  0  0  0  0  0  0  0  0  0  0
    2.3252    0.1914    0.0000 C   0  0  0  0  0  0  0  0  0  0  0  0
    3.1502    0.1914    0.0000 C   0  0  0  0  0  0  0  0  0  0  0  0
    3.5627   -0.5230    0.0000 S   0  0  0  0  0  0  0  0  0  0  0  0
    4.2772   -0.9355    0.0000 O   0  0  0  0  0  0  0  0  0  0  0  0
    4.2772   -0.1105    0.0000 O   0  0  0  0  0  0  0  0  0  0  0  0
   -2.1338   -2.8875    0.0000 O   0  0  0  0  0  0  0  0  0  0  0  0
   -3.5627   -2.0625    0.0000 C   0  0  0  0  0  0  0  0  0  0  0  0
   -4.2772   -1.6500    0.0000 C   0  0  0  0  0  0  0  0  0  0  0  0
  1  2  1  0      
  2  3  2  0      
  3  4  1  0      
  4  5  2  0      
  5  6  1  0      
  1  6  1  0      
  7  8  2  0      
  8  9  1  0      
  2  7  1  0      
  3  9  1  0      
 10 11  2  0      
 10 12  1  0      
  8 10  1  0      
 13 14  1  0      
 14 15  2  0      
 15 16  1  0      
 16 17  2  0      
 17 18  1  0      
 13 18  2  0      
 19 20  1  0      
 19 21  1  0      
 19 22  1  0      
 15 19  1  0      
  4 13  1  0      
 23 24  1  0      
 24 25  1  0      
 25 26  1  0      
 26 27  1  0      
 27 28  1  0      
 23 28  1  0      
 28 29  2  0      
 28 30  2  0      
 12 25  1  0      
  1 31  2  0      
 32 33  1  0      
  6 32  1  0      
M  END

>  <RackCode>
HYCPK72334

>  <Cat. No.>
HY-18975

>  <Product Name>
I-BRD9

>  <ROW>
M

>  <COLUMN>
13

>  <CAS No.>
1714146-59-4

>  <MWt>
497.55

>  <Target>
Epigenetic Reader Domain

>  <Saltdate>
Free Base

>  <Smiles>
N=C(C(S1)=CC2=C1C(C3=CC=CC(C(F)(F)F)=C3)=CN(CC)C2=O)NC(CC4)CCS4(=O)=O

>  <Solvent>
DMSO Solution

>  <Batch No.>
155028

>  <Quantity>
10mM  * 50uL

>  <Pathway>
Epigenetics

>  <Synonyms>


>  <Formula>
C22H22F3N3O3S2

>  <Research_Area>
Cancer; Inflammation/Immunology

>  <Clinical_Information>
No Development Reported

>  <SUPPLIER>
MedChemExpress

$$$$
Untitled Document
  ChemDraw06151715382D

 17 19  0  0  0  0  0  0  0  0999 V2000
   -2.1175    1.7344    0.0000 C   0  0  0  0  0  0  0  0  0  0  0  0
   -2.1175    0.9094    0.0000 C   0  0  0  0  0  0  0  0  0  0  0  0
   -1.4031    0.4969    0.0000 C   0  0  0  0  0  0  0  0  0  0  0  0
   -0.6886    0.9094    0.0000 C   0  0  0  0  0  0  0  0  0  0  0  0
   -0.6886    1.7344    0.0000 N   0  0  0  0  0  0  0  0  0  0  0  0
   -1.4031    2.1469    0.0000 C   0  0  0  0  0  0  0  0  0  0  0  0
   -1.4031   -0.3281    0.0000 C   0  0  0  0  0  0  0  0  0  0  0  0
   -0.6886   -0.7406    0.0000 N   0  0  0  0  0  0  0  0  0  0  0  0
    0.0259   -0.3281    0.0000 C   0  0  0  0  0  0  0  0  0  0  0  0
    0.0259    0.4969    0.0000 N   0  0  0  0  0  0  0  0  0  0  0  0
    0.8105   -0.5831    0.0000 C   0  0  0  0  0  0  0  0  0  0  0  0
    1.2954    0.0844    0.0000 C   0  0  0  0  0  0  0  0  0  0  0  0
    0.8105    0.7518    0.0000 N   0  0  0  0  0  0  0  0  0  0  0  0
   -2.1151   -0.7392    0.0000 O   0  0  0  0  0  0  0  0  0  0  0  0
    2.1175    0.0844    0.0000 C   0  0  0  0  0  0  0  0  0  0  0  0
    1.0645   -1.3650    0.0000 C   0  0  0  0  0  0  0  0  0  0  0  0
    1.3186   -2.1469    0.0000 N   0  0  0  0  0  0  0  0  0  0  0  0
  1  2  2  0      
  2  3  1  0      
  3  4  2  0      
  4  5  1  0      
  5  6  2  0      
  6  1  1  0      
  3  7  1  0      
  7  8  2  0      
  8  9  1  0      
  9 10  1  0      
 10  4  1  0      
  9 11  2  0      
 11 12  1  0      
 12 13  2  0      
 13 10  1  0      
  7 14  1  0      
 11 16  1  0      
 12 15  1  0      
 16 17  3  0      
M  END

>  <RackCode>
HYCPK72334

>  <Cat. No.>
HY-101928

>  <Product Name>
KDM4D-IN-1

>  <ROW>
N

>  <COLUMN>
13

>  <CAS No.>
2098902-68-0

>  <MWt>
225.21

>  <Target>
Histone Demethylase

>  <Saltdate>
Free Base

>  <Smiles>
OC1=NC2=C(C#N)C(C)=NN2C3=C1C=CC=N3

>  <Solvent>
DMSO Solution

>  <Batch No.>
25909

>  <Quantity>
10mM  * 50uL

>  <Pathway>
Epigenetics

>  <Synonyms>


>  <Formula>
C11H7N5O

>  <Research_Area>
Cancer

>  <Clinical_Information>
No Development Reported

>  <SUPPLIER>
MedChemExpress

$$$$
Untitled Document
  ChemDraw05312310422D

 31 34  0  0  0  0  0  0  0  0999 V2000
    2.7939   -2.8874    0.0000 O   0  0  0  0  0  0  0  0  0  0  0  0
    2.7939   -2.0625    0.0000 C   0  0  0  0  0  0  0  0  0  0  0  0
    2.0795   -1.6500    0.0000 N   0  0  0  0  0  0  0  0  0  0  0  0
    2.0795   -0.8250    0.0000 C   0  0  0  0  0  0  0  0  0  0  0  0
    2.7939   -0.4125    0.0000 N   0  0  0  0  0  0  0  0  0  0  0  0
    2.7939    0.4125    0.0000 C   0  0  0  0  0  0  0  0  0  0  0  0
    2.0795    0.8250    0.0000 C   0  0  0  0  0  0  0  0  0  0  0  0
    2.0795    1.6500    0.0000 C   0  0  0  0  0  0  0  0  0  0  0  0
    2.7939    2.0625    0.0000 O   0  0  0  0  0  0  0  0  0  0  0  0
    1.3651    2.0625    0.0000 C   0  0  0  0  0  0  0  0  0  0  0  0
    1.3651    2.8874    0.0000 C   0  0  0  0  0  0  0  0  0  0  0  0
    1.3651    0.4125    0.0000 C   0  0  0  0  0  0  0  0  0  0  0  0
    1.3651   -0.4125    0.0000 C   0  0  0  0  0  0  0  0  0  0  0  0
    0.6506    0.8250    0.0000 N   0  0  0  0  0  0  0  0  0  0  0  0
   -0.0639    0.4125    0.0000 C   0  0  0  0  0  0  0  0  0  0  0  0
   -0.0639   -0.4125    0.0000 C   0  0  0  0  0  0  0  0  0  0  0  0
   -0.7783   -0.8250    0.0000 C   0  0  0  0  0  0  0  0  0  0  0  0
   -1.4928   -0.4125    0.0000 C   0  0  0  0  0  0  0  0  0  0  0  0
   -1.4928    0.4125    0.0000 C   0  0  0  0  0  0  0  0  0  0  0  0
   -2.2073    0.8250    0.0000 C   0  0  0  0  0  0  0  0  0  0  0  0
   -2.2935    1.6455    0.0000 N   0  0  0  0  0  0  0  0  0  0  0  0
   -3.1004    1.8170    0.0000 C   0  0  0  0  0  0  0  0  0  0  0  0
   -3.5129    1.1025    0.0000 N   0  0  0  0  0  0  0  0  0  0  0  0
   -2.9609    0.4894    0.0000 N   0  0  0  0  0  0  0  0  0  0  0  0
   -4.3334    1.0163    0.0000 C   0  0  0  0  0  0  0  0  0  0  0  0
   -0.7783    0.8250    0.0000 C   0  0  0  0  0  0  0  0  0  0  0  0
   -0.7783    1.6500    0.0000 O   0  0  0  0  0  0  0  0  0  0  0  0
   -0.0639    2.0625    0.0000 C   0  0  0  0  0  0  0  0  0  0  0  0
    3.5084   -1.6500    0.0000 C   0  0  0  0  0  0  0  0  0  0  0  0
    3.9209   -0.9355    0.0000 C   0  0  0  0  0  0  0  0  0  0  0  0
    4.3334   -1.6500    0.0000 C   0  0  0  0  0  0  0  0  0  0  0  0
  1  2  2  0      
  2  3  1  0      
  3  4  1  0      
  4  5  2  0      
  5  6  1  0      
  6  7  2  0      
  7  8  1  0      
  8  9  2  0      
  8 10  1  0      
 10 11  1  0      
  7 12  1  0      
 12 13  2  0      
  4 13  1  0      
 12 14  1  0      
 14 15  1  0      
 15 16  2  0      
 16 17  1  0      
 17 18  2  0      
 18 19  1  0      
 19 20  1  0      
 20 21  1  0      
 21 22  2  0      
 22 23  1  0      
 23 24  1  0      
 20 24  2  0      
 23 25  1  0      
 19 26  2  0      
 15 26  1  0      
 26 27  1  0      
 27 28  1  0      
  2 29  1  0      
 29 30  1  0      
 30 31  1  0      
 29 31  1  0      
M  END

>  <RackCode>
HYCPK72334

>  <Cat. No.>
HY-153701

>  <Product Name>
JAK-IN-26

>  <ROW>
O

>  <COLUMN>
13

>  <CAS No.>
2417134-93-9

>  <MWt>
420.46

>  <Target>
JAK

>  <Saltdate>


>  <Smiles>
O=C(C1CC1)NC2=NC=C(C(NC3=CC=CC(C4=NN(C)C=N4)=C3OC)=C2)C(CC)=O

>  <Solvent>
DMSO Solution

>  <Batch No.>
286519

>  <Quantity>
10mM  * 50uL

>  <Pathway>
Epigenetics; JAK/STAT Signaling; Protein Tyrosine Kinase/RTK; Stem Cell/Wnt

>  <Synonyms>


>  <Formula>
C22H24N6O3

>  <Research_Area>
Cancer

>  <Clinical_Information>
No Development Reported

>  <SUPPLIER>
MedChemExpress

$$$$
Untitled Document
  ChemDraw10172214302D

 22 24  0  0  0  0  0  0  0  0999 V2000
   -0.7145   -1.0313    0.0000 N   0  0  0  0  0  0  0  0  0  0  0  0
   -0.0000   -0.6188    0.0000 N   0  0  0  0  0  0  0  0  0  0  0  0
   -0.0000    0.2062    0.0000 C   0  0  0  0  0  0  0  0  0  0  0  0
   -0.7145    0.6187    0.0000 N   0  0  0  0  0  0  0  0  0  0  0  0
   -1.4289    0.2062    0.0000 C   0  0  0  0  0  0  0  0  0  0  0  0
   -1.4289   -0.6188    0.0000 C   0  0  0  0  0  0  0  0  0  0  0  0
   -2.1433    0.6187    0.0000 C   0  0  0  0  0  0  0  0  0  0  0  0
   -2.1433   -1.0313    0.0000 N   0  0  0  0  0  0  0  0  0  0  0  0
   -2.8578   -0.6188    0.0000 C   0  0  0  0  0  0  0  0  0  0  0  0
   -2.8578    0.2062    0.0000 N   0  0  0  0  0  0  0  0  0  0  0  0
   -2.1433    1.4437    0.0000 O   0  0  0  0  0  0  0  0  0  0  0  0
   -3.5723   -1.0313    0.0000 O   0  0  0  0  0  0  0  0  0  0  0  0
   -3.5723    0.6187    0.0000 C   0  0  0  0  0  0  0  0  0  0  0  0
   -0.7145   -1.8562    0.0000 C   0  0  0  0  0  0  0  0  0  0  0  0
    0.7145    0.6187    0.0000 C   0  0  0  0  0  0  0  0  0  0  0  0
    1.4289    0.2062    0.0000 C   0  0  0  0  0  0  0  0  0  0  0  0
    2.1433    0.6187    0.0000 C   0  0  0  0  0  0  0  0  0  0  0  0
    2.1433    1.4437    0.0000 C   0  0  0  0  0  0  0  0  0  0  0  0
    1.4289    1.8562    0.0000 C   0  0  0  0  0  0  0  0  0  0  0  0
    0.7145    1.4437    0.0000 C   0  0  0  0  0  0  0  0  0  0  0  0
    2.8578    1.8562    0.0000 O   0  0  0  0  0  0  0  0  0  0  0  0
    3.5723    1.4437    0.0000 C   0  0  0  0  0  0  0  0  0  0  0  0
  1  2  1  0      
  2  3  2  0      
  3  4  1  0      
  4  5  2  0      
  5  6  1  0      
  1  6  1  0      
  8  9  1  0      
  9 10  1  0      
  7 10  1  0      
  5  7  1  0      
  6  8  2  0      
  7 11  2  0      
  9 12  2  0      
 10 13  1  0      
  1 14  1  0      
 15 16  1  0      
 16 17  2  0      
 17 18  1  0      
 18 19  2  0      
 19 20  1  0      
 15 20  2  0      
 21 22  1  0      
 18 21  1  0      
  3 15  1  0      
M  END

>  <RackCode>
HYCPK72334

>  <Cat. No.>
HY-146148

>  <Product Name>
KDM4C-IN-1

>  <ROW>
P

>  <COLUMN>
13

>  <CAS No.>
52348-60-4

>  <MWt>
299.28

>  <Target>
Histone Demethylase

>  <Saltdate>


>  <Smiles>
O=C(C1=NC(C2=CC=C(OC)C=C2)=NN(C)C1=N3)N(C)C3=O

>  <Solvent>
DMSO Solution

>  <Batch No.>
243279

>  <Quantity>
10mM  * 50uL

>  <Pathway>
Epigenetics

>  <Synonyms>


>  <Formula>
C14H13N5O3

>  <Research_Area>
Cancer

>  <Clinical_Information>
No Development Reported

>  <SUPPLIER>
MedChemExpress

$$$$
Untitled Document
  ChemDraw05061609012D

 17 19  0  0  0  0  0  0  0  0999 V2000
   -1.1270   -0.5635    0.0000 C   0  0  0  0  0  0  0  0  0  0  0  0
   -1.8413   -0.1510    0.0000 C   0  0  0  0  0  0  0  0  0  0  0  0
   -2.5558   -0.5635    0.0000 C   0  0  0  0  0  0  0  0  0  0  0  0
   -2.5558   -1.3885    0.0000 C   0  0  0  0  0  0  0  0  0  0  0  0
   -1.8413   -1.8009    0.0000 C   0  0  0  0  0  0  0  0  0  0  0  0
   -1.1270   -1.3885    0.0000 C   0  0  0  0  0  0  0  0  0  0  0  0
   -0.4125   -0.1510    0.0000 C   0  0  0  0  0  0  0  0  0  0  0  0
   -0.4125    0.6740    0.0000 C   0  0  0  0  0  0  0  0  0  0  0  0
    0.3020    1.0865    0.0000 C   0  0  0  0  0  0  0  0  0  0  0  0
    1.0164    0.6740    0.0000 C   0  0  0  0  0  0  0  0  0  0  0  0
    1.0164   -0.1510    0.0000 C   0  0  0  0  0  0  0  0  0  0  0  0
    0.3020   -0.5635    0.0000 C   0  0  0  0  0  0  0  0  0  0  0  0
   -3.2703   -0.1510    0.0000 O   0  0  0  0  0  0  0  0  0  0  0  0
    1.7308    1.0865    0.0000 C   0  0  0  0  0  0  0  0  0  0  0  0
    2.5558    1.0865    0.0000 C   0  0  0  0  0  0  0  0  0  0  0  0
    2.1433    1.8009    0.0000 C   0  0  0  0  0  0  0  0  0  0  0  0
    3.2703    0.6740    0.0000 N   0  0  0  0  0  0  0  0  0  0  0  0
  1  2  1  0      
  2  3  2  0      
  3  4  1  0      
  4  5  2  0      
  5  6  1  0      
  1  6  2  0      
  7  8  1  0      
  8  9  2  0      
  9 10  1  0      
 10 11  2  0      
 11 12  1  0      
  7 12  2  0      
  1  7  1  0      
  3 13  1  0      
 14 15  1  0      
 15 16  1  0      
 14 16  1  0      
 15 17  1  6      
 14 10  1  1      
M  END

>  <RackCode>
HYCPK72334

>  <Cat. No.>
HY-19333

>  <Product Name>
OG-L002

>  <ROW>
A

>  <COLUMN>
14

>  <CAS No.>
1357302-64-7

>  <MWt>
225.29

>  <Target>
Histone Demethylase; HSV; Monoamine Oxidase

>  <Saltdate>


>  <Smiles>
OC1=CC(C2=CC=C([C@@H]3[C@@H](N)C3)C=C2)=CC=C1

>  <Solvent>
DMSO Solution

>  <Batch No.>
275605

>  <Quantity>
10mM  * 50uL

>  <Pathway>
Anti-infection; Epigenetics; Neuronal Signaling

>  <Synonyms>


>  <Formula>
C15H15NO

>  <Research_Area>
Infection

>  <Clinical_Information>
No Development Reported

>  <SUPPLIER>
MedChemExpress

$$$$
Untitled Document
  ChemDraw01092309402D

 17 19  0  0  0  0  0  0  0  0999 V2000
    1.8869   -0.6131    0.0000 N   0  0  0  0  0  0  0  0  0  0  0  0
    2.1418    0.1715    0.0000 N   0  0  0  0  0  0  0  0  0  0  0  0
    1.4744    0.6565    0.0000 C   0  0  0  0  0  0  0  0  0  0  0  0
    1.4744    1.4815    0.0000 N   0  0  0  0  0  0  0  0  0  0  0  0
    0.8070    0.1715    0.0000 N   0  0  0  0  0  0  0  0  0  0  0  0
    1.0619   -0.6131    0.0000 C   0  0  0  0  0  0  0  0  0  0  0  0
    0.3945   -1.0980    0.0000 S   0  0  0  0  0  0  0  0  0  0  0  0
   -0.2730   -0.6131    0.0000 C   0  0  0  0  0  0  0  0  0  0  0  0
   -1.0799   -0.7846    0.0000 C   0  0  0  0  0  0  0  0  0  0  0  0
   -1.3349   -1.5692    0.0000 O   0  0  0  0  0  0  0  0  0  0  0  0
   -2.1418   -1.7408    0.0000 C   0  0  0  0  0  0  0  0  0  0  0  0
   -1.6320   -0.1715    0.0000 C   0  0  0  0  0  0  0  0  0  0  0  0
   -1.3770    0.6131    0.0000 C   0  0  0  0  0  0  0  0  0  0  0  0
   -0.5701    0.7846    0.0000 C   0  0  0  0  0  0  0  0  0  0  0  0
   -0.3151    1.5692    0.0000 O   0  0  0  0  0  0  0  0  0  0  0  0
    0.4918    1.7408    0.0000 C   0  0  0  0  0  0  0  0  0  0  0  0
   -0.0180    0.1715    0.0000 C   0  0  0  0  0  0  0  0  0  0  0  0
  1  2  1  0      
  2  3  2  0      
  3  4  1  0      
  3  5  1  0      
  5  6  1  0      
  1  6  2  0      
  6  7  1  0      
  7  8  1  0      
  8  9  1  0      
  9 10  1  0      
 10 11  1  0      
  9 12  2  0      
 12 13  1  0      
 13 14  2  0      
 14 15  1  0      
 15 16  1  0      
 14 17  1  0      
  8 17  2  0      
  5 17  1  0      
M  END

>  <RackCode>
HYCPK72334

>  <Cat. No.>
HY-148566

>  <Product Name>
OUL232

>  <ROW>
B

>  <COLUMN>
14

>  <CAS No.>
943119-42-4

>  <MWt>
250.28

>  <Target>
PARP

>  <Saltdate>


>  <Smiles>
NC1=NN=C2N1C3=C(C(OC)=CC=C3OC)S2

>  <Solvent>
DMSO Solution

>  <Batch No.>
340251

>  <Quantity>
10mM  * 50uL

>  <Pathway>
Cell Cycle/DNA Damage; Epigenetics

>  <Synonyms>


>  <Formula>
C10H10N4O2S

>  <Research_Area>
Cancer

>  <Clinical_Information>
No Development Reported

>  <SUPPLIER>
MedChemExpress

$$$$
Untitled Document
  ChemDraw10271714132D

 23 26  0  0  0  0  0  0  0  0999 V2000
   -2.1868    1.9602    0.0000 C   0  0  0  0  0  0  0  0  0  0  0  0
   -2.9938    1.7887    0.0000 C   0  0  0  0  0  0  0  0  0  0  0  0
   -3.2488    1.0040    0.0000 C   0  0  0  0  0  0  0  0  0  0  0  0
   -2.6967    0.3909    0.0000 C   0  0  0  0  0  0  0  0  0  0  0  0
   -1.8897    0.5625    0.0000 C   0  0  0  0  0  0  0  0  0  0  0  0
   -1.6348    1.3471    0.0000 C   0  0  0  0  0  0  0  0  0  0  0  0
   -1.2223    0.0776    0.0000 N   0  0  0  0  0  0  0  0  0  0  0  0
   -0.5549    0.5625    0.0000 C   0  0  0  0  0  0  0  0  0  0  0  0
   -0.8098    1.3471    0.0000 C   0  0  0  0  0  0  0  0  0  0  0  0
    0.2521    0.3909    0.0000 C   0  0  0  0  0  0  0  0  0  0  0  0
    0.8041    1.0040    0.0000 C   0  0  0  0  0  0  0  0  0  0  0  0
    0.5492    1.7887    0.0000 C   0  0  0  0  0  0  0  0  0  0  0  0
   -0.2578    1.9602    0.0000 C   0  0  0  0  0  0  0  0  0  0  0  0
    0.5062   -0.3910    0.0000 C   0  0  0  0  0  0  0  0  0  0  0  0
   -0.0459   -1.0040    0.0000 C   0  0  0  0  0  0  0  0  0  0  0  0
    0.2091   -1.7887    0.0000 C   0  0  0  0  0  0  0  0  0  0  0  0
    1.0160   -1.9602    0.0000 C   0  0  0  0  0  0  0  0  0  0  0  0
    1.5681   -1.3471    0.0000 C   0  0  0  0  0  0  0  0  0  0  0  0
    1.3131   -0.5625    0.0000 C   0  0  0  0  0  0  0  0  0  0  0  0
    1.8632    0.0485    0.0000 N   0  0  0  0  0  0  0  0  0  0  0  0
    2.6674   -0.1224    0.0000 C   0  0  0  0  0  0  0  0  0  0  0  0
    2.9215   -0.9043    0.0000 C   0  0  0  0  0  0  0  0  0  0  0  0
    3.2488    0.4589    0.0000 O   0  0  0  0  0  0  0  0  0  0  0  0
  1  2  2  0      
  2  3  1  0      
  3  4  2  0      
  4  5  1  0      
  5  6  2  0      
  6  1  1  0      
  5  7  1  0      
  7  8  1  0      
  8  9  2  0      
  9  6  1  0      
  8 10  1  0      
 10 11  2  0      
 11 12  1  0      
 12 13  2  0      
 13  9  1  0      
 10 14  1  0      
 14 15  2  0      
 15 16  1  0      
 16 17  2  0      
 17 18  1  0      
 18 19  2  0      
 19 14  1  0      
 19 20  1  0      
 20 21  1  0      
 21 22  1  0      
 21 23  2  0      
M  END

>  <RackCode>
HYCPK72334

>  <Cat. No.>
HY-108708

>  <Product Name>
GeA-69

>  <ROW>
C

>  <COLUMN>
14

>  <CAS No.>
2143475-98-1

>  <MWt>
300.35

>  <Target>
PARP

>  <Saltdate>
Free Base

>  <Smiles>
CC(NC1=CC=CC=C1C2=CC=CC3=C2NC4=C3C=CC=C4)=O

>  <Solvent>
DMSO Solution

>  <Batch No.>
43067

>  <Quantity>
10mM  * 50uL

>  <Pathway>
Cell Cycle/DNA Damage; Epigenetics

>  <Synonyms>


>  <Formula>
C20H16N2O

>  <Research_Area>
Cancer

>  <Clinical_Information>
No Development Reported

>  <SUPPLIER>
MedChemExpress

$$$$
Untitled Document
  ChemDraw09261714092D

 27 30  0  0  0  0  0  0  0  0999 V2000
   -2.1546    2.8055    0.0000 C   0  0  0  0  0  0  0  0  0  0  0  0
   -1.4402    3.2180    0.0000 N   0  0  0  0  0  0  0  0  0  0  0  0
   -0.7257    2.8055    0.0000 C   0  0  0  0  0  0  0  0  0  0  0  0
   -0.7257    1.9805    0.0000 C   0  0  0  0  0  0  0  0  0  0  0  0
   -1.4402    1.5680    0.0000 C   0  0  0  0  0  0  0  0  0  0  0  0
   -2.1546    1.9805    0.0000 N   0  0  0  0  0  0  0  0  0  0  0  0
    0.0589    1.7256    0.0000 C   0  0  0  0  0  0  0  0  0  0  0  0
    0.5438    2.3930    0.0000 C   0  0  0  0  0  0  0  0  0  0  0  0
    0.0589    3.0605    0.0000 S   0  0  0  0  0  0  0  0  0  0  0  0
    1.3688    2.3930    0.0000 C   0  0  0  0  0  0  0  0  0  0  0  0
    1.7813    3.1075    0.0000 C   0  0  0  0  0  0  0  0  0  0  0  0
    2.1938    3.8220    0.0000 F   0  0  0  0  0  0  0  0  0  0  0  0
    1.3688    3.8220    0.0000 F   0  0  0  0  0  0  0  0  0  0  0  0
    2.6063    3.1075    0.0000 F   0  0  0  0  0  0  0  0  0  0  0  0
   -1.4402    0.7430    0.0000 N   0  0  0  0  0  0  0  0  0  0  0  0
   -0.7257    0.3305    0.0000 C   0  0  0  0  0  0  0  0  0  0  0  0
   -0.7257   -0.4945    0.0000 C   0  0  0  0  0  0  0  0  0  0  0  0
   -1.4402   -0.9070    0.0000 N   0  0  0  0  0  0  0  0  0  0  0  0
   -2.1546   -0.4945    0.0000 C   0  0  0  0  0  0  0  0  0  0  0  0
   -2.1546    0.3305    0.0000 C   0  0  0  0  0  0  0  0  0  0  0  0
   -2.1076   -2.2169    0.0000 S   0  0  0  0  0  0  0  0  0  0  0  0
   -1.4402   -1.7320    0.0000 C   0  0  0  0  0  0  0  0  0  0  0  0
   -0.7727   -2.2169    0.0000 N   0  0  0  0  0  0  0  0  0  0  0  0
   -1.0277   -3.0015    0.0000 C   0  0  0  0  0  0  0  0  0  0  0  0
   -1.8527   -3.0015    0.0000 C   0  0  0  0  0  0  0  0  0  0  0  0
   -1.9389   -3.8220    0.0000 C   0  0  0  0  0  0  0  0  0  0  0  0
   -2.6063   -3.3371    0.0000 C   0  0  0  0  0  0  0  0  0  0  0  0
  1  2  1  0      
  2  3  2  0      
  3  4  1  0      
  4  5  2  0      
  5  6  1  0      
  1  6  2  0      
  7  8  2  0      
  8  9  1  0      
  3  9  1  0      
  4  7  1  0      
 10 11  1  0      
 11 12  1  0      
 11 13  1  0      
 11 14  1  0      
  8 10  1  0      
 15 16  1  0      
 16 17  1  0      
 17 18  1  0      
 18 19  1  0      
 19 20  1  0      
 15 20  1  0      
 21 22  1  0      
 22 23  2  0      
 23 24  1  0      
 24 25  1  0      
 21 25  1  0      
 25 26  1  0      
 25 27  1  0      
 18 22  1  0      
  5 15  1  0      
M  END

>  <RackCode>
HYCPK72334

>  <Cat. No.>
HY-108350

>  <Product Name>
MI-2-2

>  <ROW>
D

>  <COLUMN>
14

>  <CAS No.>
1454920-20-7

>  <MWt>
415.50

>  <Target>
Epigenetic Reader Domain

>  <Saltdate>


>  <Smiles>
FC(F)(F)CC1=CC2=C(N3CCN(C4=NCC(C)(C)S4)CC3)N=CN=C2S1

>  <Solvent>
DMSO Solution

>  <Batch No.>
250888

>  <Quantity>
10mM  * 50uL

>  <Pathway>
Epigenetics

>  <Synonyms>


>  <Formula>
C17H20F3N5S2

>  <Research_Area>
Cancer

>  <Clinical_Information>
No Development Reported

>  <SUPPLIER>
MedChemExpress

$$$$
Untitled Document
  ChemDraw12121913282D

 32 36  0  0  0  0  0  0  0  0999 V2000
   -2.4920   -1.7726    0.0000 C   0  0  0  0  0  0  0  0  0  0  0  0
   -2.4920   -2.5976    0.0000 C   0  0  0  0  0  0  0  0  0  0  0  0
   -3.2065   -3.0101    0.0000 C   0  0  0  0  0  0  0  0  0  0  0  0
   -3.9210   -2.5976    0.0000 C   0  0  0  0  0  0  0  0  0  0  0  0
   -3.9210   -1.7726    0.0000 C   0  0  0  0  0  0  0  0  0  0  0  0
   -3.2065   -1.3601    0.0000 C   0  0  0  0  0  0  0  0  0  0  0  0
   -1.7776   -1.3601    0.0000 S   0  0  0  0  0  0  0  0  0  0  0  0
   -2.1901   -0.6456    0.0000 O   0  0  0  0  0  0  0  0  0  0  0  0
   -1.3651   -2.0746    0.0000 O   0  0  0  0  0  0  0  0  0  0  0  0
   -1.0631   -0.9476    0.0000 N   0  0  0  0  0  0  0  0  0  0  0  0
    0.3658   -0.1226    0.0000 N   0  0  0  0  0  0  0  0  0  0  0  0
    1.0803    0.2899    0.0000 C   0  0  0  0  0  0  0  0  0  0  0  0
    1.0803    1.1149    0.0000 C   0  0  0  0  0  0  0  0  0  0  0  0
    0.3658    1.5274    0.0000 C   0  0  0  0  0  0  0  0  0  0  0  0
   -0.3486    1.1149    0.0000 C   0  0  0  0  0  0  0  0  0  0  0  0
   -1.0631    1.5274    0.0000 C   0  0  0  0  0  0  0  0  0  0  0  0
   -1.7776    1.1149    0.0000 C   0  0  0  0  0  0  0  0  0  0  0  0
   -1.7776    0.2899    0.0000 C   0  0  0  0  0  0  0  0  0  0  0  0
   -1.0631   -0.1226    0.0000 C   0  0  0  0  0  0  0  0  0  0  0  0
   -0.3486    0.2899    0.0000 C   0  0  0  0  0  0  0  0  0  0  0  0
   -0.7624    2.2956    0.0000 N   0  0  0  0  0  0  0  0  0  0  0  0
    0.0626    2.2956    0.0000 C   0  0  0  0  0  0  0  0  0  0  0  0
    0.4751    3.0101    0.0000 O   0  0  0  0  0  0  0  0  0  0  0  0
    1.8810   -0.9431    0.0000 C   0  0  0  0  0  0  0  0  0  0  0  0
    2.6880   -1.1146    0.0000 N   0  0  0  0  0  0  0  0  0  0  0  0
    3.1005   -0.4001    0.0000 C   0  0  0  0  0  0  0  0  0  0  0  0
    2.5485    0.2129    0.0000 C   0  0  0  0  0  0  0  0  0  0  0  0
    1.7948   -0.1226    0.0000 N   0  0  0  0  0  0  0  0  0  0  0  0
    3.9210   -0.3139    0.0000 C   0  0  0  0  0  0  0  0  0  0  0  0
   -1.1749    3.0101    0.0000 C   0  0  0  0  0  0  0  0  0  0  0  0
   -1.7776   -3.0101    0.0000 O   0  0  0  0  0  0  0  0  0  0  0  0
   -1.0631   -2.5976    0.0000 C   0  0  0  0  0  0  0  0  0  0  0  0
  1  2  1  0      
  2  3  2  0      
  3  4  1  0      
  4  5  2  0      
  5  6  1  0      
  1  6  2  0      
  7  8  2  0      
  7  9  2  0      
  7 10  1  0      
  1  7  1  0      
 11 12  2  0      
 12 13  1  0      
 13 14  2  0      
 14 15  1  0      
 15 16  2  0      
 16 17  1  0      
 17 18  2  0      
 18 19  1  0      
 19 20  2  0      
 11 20  1  0      
 15 20  1  0      
 21 22  1  0      
 22 14  1  0      
 21 16  1  0      
 22 23  2  0      
 24 25  2  0      
 25 26  1  0      
 26 27  2  0      
 27 28  1  0      
 24 28  1  0      
 26 29  1  0      
 12 28  1  0      
 21 30  1  0      
 10 19  1  0      
 31 32  1  0      
  2 31  1  0      
M  END

>  <RackCode>
HYCPK72334

>  <Cat. No.>
HY-130622

>  <Product Name>
LT052

>  <ROW>
E

>  <COLUMN>
14

>  <CAS No.>
2543545-44-2

>  <MWt>
449.48

>  <Target>
Epigenetic Reader Domain

>  <Saltdate>
Free Base

>  <Smiles>
O=S(C1=CC=CC=C1OC)(NC2=C3N=C(N4C=C(C)N=C4)C=C5C3=C(N(C)C5=O)C=C2)=O

>  <Solvent>
DMSO Solution

>  <Batch No.>
96900

>  <Quantity>
10mM  * 50uL

>  <Pathway>
Epigenetics

>  <Synonyms>


>  <Formula>
C22H19N5O4S

>  <Research_Area>
Inflammation/Immunology

>  <Clinical_Information>
No Development Reported

>  <SUPPLIER>
MedChemExpress

$$$$
Untitled Document
  ChemDraw06242215352D

 22 24  0  0  0  0  0  0  0  0999 V2000
   -0.0000   -0.8250    0.0000 O   0  0  0  0  0  0  0  0  0  0  0  0
    0.7145   -1.2375    0.0000 C   0  0  0  0  0  0  0  0  0  0  0  0
    0.7145   -2.0625    0.0000 C   0  0  0  0  0  0  0  0  0  0  0  0
   -0.0000   -2.4750    0.0000 N   0  0  0  0  0  0  0  0  0  0  0  0
   -0.7145   -2.0625    0.0000 C   0  0  0  0  0  0  0  0  0  0  0  0
   -0.7145   -1.2375    0.0000 C   0  0  0  0  0  0  0  0  0  0  0  0
    1.4289   -2.4750    0.0000 C   0  0  0  0  0  0  0  0  0  0  0  0
    2.1434   -2.0625    0.0000 C   0  0  0  0  0  0  0  0  0  0  0  0
    2.1434   -1.2375    0.0000 C   0  0  0  0  0  0  0  0  0  0  0  0
    1.4289   -0.8250    0.0000 C   0  0  0  0  0  0  0  0  0  0  0  0
    1.4289    0.0000    0.0000 C   0  0  0  0  0  0  0  0  0  0  0  0
    0.7145    0.4125    0.0000 O   0  0  0  0  0  0  0  0  0  0  0  0
    2.1434    0.4125    0.0000 N   0  0  0  0  0  0  0  0  0  0  0  0
   -1.4289   -2.4750    0.0000 O   0  0  0  0  0  0  0  0  0  0  0  0
   -1.4289   -0.8250    0.0000 C   0  0  0  0  0  0  0  0  0  0  0  0
   -1.4289    0.0000    0.0000 C   0  0  0  0  0  0  0  0  0  0  0  0
   -2.1434    0.4125    0.0000 C   0  0  0  0  0  0  0  0  0  0  0  0
   -2.1434    1.2375    0.0000 C   0  0  0  0  0  0  0  0  0  0  0  0
   -1.4289    1.6500    0.0000 C   0  0  0  0  0  0  0  0  0  0  0  0
   -0.7145    1.2375    0.0000 C   0  0  0  0  0  0  0  0  0  0  0  0
   -0.7145    0.4125    0.0000 C   0  0  0  0  0  0  0  0  0  0  0  0
   -1.4289    2.4750    0.0000 O   0  0  0  0  0  0  0  0  0  0  0  0
  1  2  1  0      
  2  3  1  0      
  3  4  1  0      
  4  5  1  0      
  5  6  1  0      
  1  6  1  0      
  7  8  1  0      
  8  9  2  0      
  9 10  1  0      
 10  2  2  0      
  7  3  2  0      
 11 12  2  0      
 11 13  1  0      
 10 11  1  0      
  5 14  2  0      
 15 16  1  0      
 16 17  1  0      
 17 18  2  0      
 18 19  1  0      
 19 20  2  0      
 20 21  1  0      
 16 21  2  0      
 19 22  1  0      
  6 15  2  0      
M  END

>  <RackCode>
HYCPK72334

>  <Cat. No.>
HY-147886

>  <Product Name>
PARP1-IN-11

>  <ROW>
F

>  <COLUMN>
14

>  <CAS No.>
2482484-87-5

>  <MWt>
296.28

>  <Target>
PARP

>  <Saltdate>


>  <Smiles>
O=C(C1=C(C(NC/2=O)=CC=C1)OC2=C/C3=CC=C(O)C=C3)N

>  <Solvent>
DMSO Solution

>  <Batch No.>
244991

>  <Quantity>
10mM  * 50uL

>  <Pathway>
Cell Cycle/DNA Damage; Epigenetics

>  <Synonyms>


>  <Formula>
C16H12N2O4

>  <Research_Area>
Cancer

>  <Clinical_Information>
No Development Reported

>  <SUPPLIER>
MedChemExpress

$$$$
Untitled Document
  ChemDraw05101917262D

 27 29  0  0  0  0  0  0  0  0999 V2000
    2.1035   -3.0255    0.0000 O   0  0  0  0  0  0  0  0  0  0  0  0
    2.7709   -2.5406    0.0000 S   0  0  0  0  0  0  0  0  0  0  0  0
    2.2860   -1.8731    0.0000 C   0  0  0  0  0  0  0  0  0  0  0  0
    1.4655   -1.9594    0.0000 C   0  0  0  0  0  0  0  0  0  0  0  0
    0.9806   -1.2919    0.0000 C   0  0  0  0  0  0  0  0  0  0  0  0
    1.3162   -0.5382    0.0000 C   0  0  0  0  0  0  0  0  0  0  0  0
    0.8312    0.1292    0.0000 N   0  0  0  0  0  0  0  0  0  0  0  0
    0.0108    0.0430    0.0000 C   0  0  0  0  0  0  0  0  0  0  0  0
   -0.5413    0.6561    0.0000 N   0  0  0  0  0  0  0  0  0  0  0  0
   -1.2950    0.3205    0.0000 N   0  0  0  0  0  0  0  0  0  0  0  0
   -2.0094    0.7330    0.0000 C   0  0  0  0  0  0  0  0  0  0  0  0
   -2.0094    1.5580    0.0000 C   0  0  0  0  0  0  0  0  0  0  0  0
   -1.2950    1.9705    0.0000 C   0  0  0  0  0  0  0  0  0  0  0  0
   -0.5805    1.5580    0.0000 F   0  0  0  0  0  0  0  0  0  0  0  0
   -1.2950    2.7955    0.0000 C   0  0  0  0  0  0  0  0  0  0  0  0
   -2.0094    3.2080    0.0000 C   0  0  0  0  0  0  0  0  0  0  0  0
   -2.7239    2.7955    0.0000 C   0  0  0  0  0  0  0  0  0  0  0  0
   -2.7239    1.9705    0.0000 C   0  0  0  0  0  0  0  0  0  0  0  0
   -3.4384    1.5580    0.0000 F   0  0  0  0  0  0  0  0  0  0  0  0
   -2.7239    0.3205    0.0000 O   0  0  0  0  0  0  0  0  0  0  0  0
   -1.2087   -0.5000    0.0000 C   0  0  0  0  0  0  0  0  0  0  0  0
   -1.8218   -1.0520    0.0000 N   0  0  0  0  0  0  0  0  0  0  0  0
   -0.4017   -0.6715    0.0000 N   0  0  0  0  0  0  0  0  0  0  0  0
    2.1366   -0.4520    0.0000 C   0  0  0  0  0  0  0  0  0  0  0  0
    2.6216   -1.1194    0.0000 C   0  0  0  0  0  0  0  0  0  0  0  0
    3.2558   -3.2080    0.0000 N   0  0  0  0  0  0  0  0  0  0  0  0
    3.4384   -2.0556    0.0000 O   0  0  0  0  0  0  0  0  0  0  0  0
  1  2  2  0      
  2  3  1  0      
  3  4  2  0      
  4  5  1  0      
  5  6  2  0      
  6  7  1  0      
  7  8  1  0      
  8  9  2  0      
  9 10  1  0      
 10 11  1  0      
 11 12  1  0      
 12 13  2  0      
 13 14  1  0      
 13 15  1  0      
 15 16  2  0      
 16 17  1  0      
 17 18  2  0      
 12 18  1  0      
 18 19  1  0      
 11 20  2  0      
 10 21  1  0      
 21 22  1  0      
 21 23  2  0      
  8 23  1  0      
  6 24  1  0      
 24 25  2  0      
  3 25  1  0      
  2 26  1  0      
  2 27  2  0      
M  END

>  <RackCode>
HYCPK72334

>  <Cat. No.>
HY-10329

>  <Product Name>
JNJ-7706621

>  <ROW>
G

>  <COLUMN>
14

>  <CAS No.>
443797-96-4

>  <MWt>
394.36

>  <Target>
Apoptosis; Aurora Kinase; CDK

>  <Saltdate>
Free Base

>  <Smiles>
O=S(C1=CC=C(NC2=NN(C(C3=C(F)C=CC=C3F)=O)C(N)=N2)C=C1)(N)=O

>  <Solvent>
DMSO Solution

>  <Batch No.>
282993

>  <Quantity>
10mM  * 50uL

>  <Pathway>
Apoptosis; Cell Cycle/DNA Damage; Epigenetics

>  <Synonyms>


>  <Formula>
C15H12F2N6O3S

>  <Research_Area>
Cancer

>  <Clinical_Information>
No Development Reported

>  <SUPPLIER>
MedChemExpress

$$$$
Untitled Document
  ChemDraw03051913042D

 17 19  0  0  0  0  0  0  0  0999 V2000
   -1.5703    0.7260    0.0000 C   0  0  0  0  0  0  0  0  0  0  0  0
   -1.5703   -0.0990    0.0000 C   0  0  0  0  0  0  0  0  0  0  0  0
   -2.2848   -0.5115    0.0000 C   0  0  0  0  0  0  0  0  0  0  0  0
   -2.9992   -0.0990    0.0000 C   0  0  0  0  0  0  0  0  0  0  0  0
   -2.9992    0.7260    0.0000 C   0  0  0  0  0  0  0  0  0  0  0  0
   -2.2848    1.1385    0.0000 N   0  0  0  0  0  0  0  0  0  0  0  0
   -0.7857    0.9810    0.0000 S   0  0  0  0  0  0  0  0  0  0  0  0
   -0.3008    0.3135    0.0000 N   0  0  0  0  0  0  0  0  0  0  0  0
   -0.7857   -0.3539    0.0000 C   0  0  0  0  0  0  0  0  0  0  0  0
   -0.5307   -1.1385    0.0000 O   0  0  0  0  0  0  0  0  0  0  0  0
    0.5242    0.3135    0.0000 C   0  0  0  0  0  0  0  0  0  0  0  0
    0.9367    1.0280    0.0000 C   0  0  0  0  0  0  0  0  0  0  0  0
    1.7617    1.0280    0.0000 C   0  0  0  0  0  0  0  0  0  0  0  0
    2.1742    0.3135    0.0000 C   0  0  0  0  0  0  0  0  0  0  0  0
    1.7617   -0.4009    0.0000 C   0  0  0  0  0  0  0  0  0  0  0  0
    0.9367   -0.4009    0.0000 C   0  0  0  0  0  0  0  0  0  0  0  0
    2.9992    0.3135    0.0000 F   0  0  0  0  0  0  0  0  0  0  0  0
  1  2  1  0      
  2  3  2  0      
  3  4  1  0      
  4  5  2  0      
  5  6  1  0      
  1  6  2  0      
  7  8  1  0      
  8  9  1  0      
  1  7  1  0      
  2  9  1  0      
  9 10  2  0      
 11 12  1  0      
 12 13  2  0      
 13 14  1  0      
 14 15  2  0      
 15 16  1  0      
 11 16  2  0      
 14 17  1  0      
  8 11  1  0      
M  END

>  <RackCode>
HYCPK72334

>  <Cat. No.>
HY-124696

>  <Product Name>
PU139

>  <ROW>
H

>  <COLUMN>
14

>  <CAS No.>
158093-65-3

>  <MWt>
246.26

>  <Target>
Histone Acetyltransferase

>  <Saltdate>


>  <Smiles>
O=C1N(C2=CC=C(F)C=C2)SC3=NC=CC=C31

>  <Solvent>
DMSO Solution

>  <Batch No.>
125721

>  <Quantity>
10mM  * 50uL

>  <Pathway>
Epigenetics

>  <Synonyms>


>  <Formula>
C12H7FN2OS

>  <Research_Area>
Cancer

>  <Clinical_Information>
No Development Reported

>  <SUPPLIER>
MedChemExpress

$$$$
Untitled Document
  ChemDraw05101917272D

 36 41  0  0  0  0  0  0  0  0999 V2000
   -0.3244    2.3765    0.0000 C   0  0  0  0  0  0  0  0  0  0  0  0
   -1.1449    2.4628    0.0000 C   0  0  0  0  0  0  0  0  0  0  0  0
   -1.6969    1.8497    0.0000 C   0  0  0  0  0  0  0  0  0  0  0  0
   -2.4506    2.1852    0.0000 C   0  0  0  0  0  0  0  0  0  0  0  0
   -3.1650    1.7727    0.0000 C   0  0  0  0  0  0  0  0  0  0  0  0
   -3.1650    0.9477    0.0000 N   0  0  0  0  0  0  0  0  0  0  0  0
   -2.4506    0.5352    0.0000 C   0  0  0  0  0  0  0  0  0  0  0  0
   -2.4506   -0.2898    0.0000 C   0  0  0  0  0  0  0  0  0  0  0  0
   -3.8795    0.5352    0.0000 C   0  0  0  0  0  0  0  0  0  0  0  0
   -3.8795   -0.2898    0.0000 C   0  0  0  0  0  0  0  0  0  0  0  0
   -3.1650   -0.7023    0.0000 N   0  0  0  0  0  0  0  0  0  0  0  0
   -3.1650   -1.5273    0.0000 C   0  0  0  0  0  0  0  0  0  0  0  0
   -2.4506   -1.9398    0.0000 C   0  0  0  0  0  0  0  0  0  0  0  0
   -2.4506   -2.7648    0.0000 C   0  0  0  0  0  0  0  0  0  0  0  0
   -1.6659   -3.0197    0.0000 N   0  0  0  0  0  0  0  0  0  0  0  0
   -1.1810   -2.3523    0.0000 C   0  0  0  0  0  0  0  0  0  0  0  0
   -0.3560   -2.3523    0.0000 C   0  0  0  0  0  0  0  0  0  0  0  0
    0.0565   -1.6378    0.0000 C   0  0  0  0  0  0  0  0  0  0  0  0
    0.8815   -1.6378    0.0000 C   0  0  0  0  0  0  0  0  0  0  0  0
    1.2940   -2.3523    0.0000 C   0  0  0  0  0  0  0  0  0  0  0  0
    2.1190   -2.3523    0.0000 N   0  0  0  0  0  0  0  0  0  0  0  0
    2.5315   -1.6378    0.0000 C   0  0  0  0  0  0  0  0  0  0  0  0
    3.3565   -1.6378    0.0000 C   0  0  0  0  0  0  0  0  0  0  0  0
    3.7690   -2.3523    0.0000 N   0  0  0  0  0  0  0  0  0  0  0  0
    4.5940   -2.3523    0.0000 C   0  0  0  0  0  0  0  0  0  0  0  0
    3.3565   -3.0667    0.0000 C   0  0  0  0  0  0  0  0  0  0  0  0
    2.5315   -3.0667    0.0000 C   0  0  0  0  0  0  0  0  0  0  0  0
    0.8815   -3.0667    0.0000 C   0  0  0  0  0  0  0  0  0  0  0  0
    0.0565   -3.0667    0.0000 C   0  0  0  0  0  0  0  0  0  0  0  0
   -1.6659   -1.6848    0.0000 N   0  0  0  0  0  0  0  0  0  0  0  0
   -3.1650   -3.1773    0.0000 N   0  0  0  0  0  0  0  0  0  0  0  0
   -3.8795   -2.7648    0.0000 C   0  0  0  0  0  0  0  0  0  0  0  0
   -3.8795   -1.9398    0.0000 C   0  0  0  0  0  0  0  0  0  0  0  0
   -4.5940   -1.5273    0.0000 Br  0  0  0  0  0  0  0  0  0  0  0  0
   -2.3643    3.0057    0.0000 N   0  0  0  0  0  0  0  0  0  0  0  0
   -1.5574    3.1773    0.0000 O   0  0  0  0  0  0  0  0  0  0  0  0
  1  2  1  0      
  2  3  2  0      
  3  4  1  0      
  4  5  1  0      
  5  6  1  0      
  6  7  1  0      
  7  8  1  0      
  6  9  1  0      
  9 10  1  0      
 10 11  1  0      
  8 11  1  0      
 11 12  1  0      
 12 13  2  0      
 13 14  1  0      
 14 15  1  0      
 15 16  1  0      
 16 17  1  0      
 17 18  2  0      
 18 19  1  0      
 19 20  2  0      
 20 21  1  0      
 21 22  1  0      
 22 23  1  0      
 23 24  1  0      
 24 25  1  0      
 24 26  1  0      
 26 27  1  0      
 21 27  1  0      
 20 28  1  0      
 28 29  2  0      
 17 29  1  0      
 16 30  2  0      
 13 30  1  0      
 14 31  2  0      
 31 32  1  0      
 32 33  2  0      
 12 33  1  0      
 33 34  1  0      
  4 35  2  0      
 35 36  1  0      
  2 36  1  0      
M  END

>  <RackCode>
HYCPK72334

>  <Cat. No.>
HY-10804

>  <Product Name>
CCT 137690

>  <ROW>
I

>  <COLUMN>
14

>  <CAS No.>
1095382-05-0

>  <MWt>
551.48

>  <Target>
Apoptosis; Aurora Kinase

>  <Saltdate>
Free Base

>  <Smiles>
CC1=CC(CN(CC2)CCN2C3=C4C(NC(C5=CC=C(N6CCN(C)CC6)C=C5)=N4)=NC=C3Br)=NO1

>  <Solvent>
DMSO Solution

>  <Batch No.>
05418

>  <Quantity>
10mM  * 50uL

>  <Pathway>
Apoptosis; Cell Cycle/DNA Damage; Epigenetics

>  <Synonyms>


>  <Formula>
C26H31BrN8O

>  <Research_Area>
Cancer

>  <Clinical_Information>
No Development Reported

>  <SUPPLIER>
MedChemExpress

$$$$
Untitled Document
  ChemDraw06121617382D

 45 45  0  0  0  0  0  0  0  0999 V2000
   -5.7158   -1.2772    0.0000 N   0  0  0  0  0  0  0  0  0  0  0  0
   -5.0013   -1.6897    0.0000 C   0  0  0  0  0  0  0  0  0  0  0  0
   -4.2868   -1.2772    0.0000 N   0  0  0  0  0  0  0  0  0  0  0  0
   -4.2868   -0.4522    0.0000 C   0  0  0  0  0  0  0  0  0  0  0  0
   -3.5724   -0.0397    0.0000 C   0  0  0  0  0  0  0  0  0  0  0  0
   -2.8579   -0.4522    0.0000 N   0  0  0  0  0  0  0  0  0  0  0  0
   -2.1434   -0.0397    0.0000 C   0  0  0  0  0  0  0  0  0  0  0  0
   -2.1434    0.7853    0.0000 C   0  0  0  0  0  0  0  0  0  0  0  0
   -2.8579    1.1978    0.0000 C   0  0  0  0  0  0  0  0  0  0  0  0
   -2.8579    2.0228    0.0000 C   0  0  0  0  0  0  0  0  0  0  0  0
   -3.5724    2.4353    0.0000 C   0  0  0  0  0  0  0  0  0  0  0  0
   -4.2868    2.0228    0.0000 O   0  0  0  0  0  0  0  0  0  0  0  0
   -5.0013    2.4353    0.0000 C   0  0  0  0  0  0  0  0  0  0  0  0
   -3.5724    3.2603    0.0000 O   0  0  0  0  0  0  0  0  0  0  0  0
   -2.1434    2.4353    0.0000 C   0  0  0  0  0  0  0  0  0  0  0  0
   -1.4289    2.0228    0.0000 C   0  0  0  0  0  0  0  0  0  0  0  0
   -0.7145    2.4353    0.0000 C   0  0  0  0  0  0  0  0  0  0  0  0
   -0.0000    2.0228    0.0000 N   0  0  0  0  0  0  0  0  0  0  0  0
    0.7145    2.4353    0.0000 C   0  0  0  0  0  0  0  0  0  0  0  0
    1.4289    2.0228    0.0000 C   0  0  0  0  0  0  0  0  0  0  0  0
    1.4289    1.1978    0.0000 N   0  0  0  0  0  0  0  0  0  0  0  0
    2.1434    0.7853    0.0000 C   0  0  0  0  0  0  0  0  0  0  0  0
    2.8579    1.1978    0.0000 C   0  0  0  0  0  0  0  0  0  0  0  0
    2.8579    2.0228    0.0000 C   0  0  0  0  0  0  0  0  0  0  0  0
    3.5724    2.4353    0.0000 C   0  0  0  0  0  0  0  0  0  0  0  0
    4.2868    2.0228    0.0000 C   0  0  0  0  0  0  0  0  0  0  0  0
    5.0013    2.4353    0.0000 C   0  0  0  0  0  0  0  0  0  0  0  0
    5.7158    2.0228    0.0000 N   0  0  0  0  0  0  0  0  0  0  0  0
    5.0013    3.2603    0.0000 N   0  0  0  0  0  0  0  0  0  0  0  0
    4.2868    1.1978    0.0000 C   0  0  0  0  0  0  0  0  0  0  0  0
    3.5724    0.7853    0.0000 C   0  0  0  0  0  0  0  0  0  0  0  0
    2.1434   -0.0397    0.0000 O   0  0  0  0  0  0  0  0  0  0  0  0
    0.7145    0.7853    0.0000 C   0  0  0  0  0  0  0  0  0  0  0  0
   -0.0000    1.1978    0.0000 C   0  0  0  0  0  0  0  0  0  0  0  0
   -0.7145    3.2603    0.0000 O   0  0  0  0  0  0  0  0  0  0  0  0
   -1.4289    1.1978    0.0000 C   0  0  0  0  0  0  0  0  0  0  0  0
   -2.8579   -1.2772    0.0000 C   0  0  0  0  0  0  0  0  0  0  0  0
   -3.5724   -1.6897    0.0000 C   0  0  0  0  0  0  0  0  0  0  0  0
   -5.0013   -2.5147    0.0000 N   0  0  0  0  0  0  0  0  0  0  0  0
    0.1522   -1.3980    0.0000 H   0  0  0  0  0  0  0  0  0  0  0  0
    0.9743   -1.3980    0.0000 Cl  0  0  0  0  0  0  0  0  0  0  0  0
    0.1522   -2.3148    0.0000 H   0  0  0  0  0  0  0  0  0  0  0  0
    0.9744   -2.3148    0.0000 Cl  0  0  0  0  0  0  0  0  0  0  0  0
    0.1522   -3.2603    0.0000 H   0  0  0  0  0  0  0  0  0  0  0  0
    0.9744   -3.2603    0.0000 Cl  0  0  0  0  0  0  0  0  0  0  0  0
  1  2  1  0      
  2  3  1  0      
  3  4  1  0      
  4  5  1  0      
  5  6  1  0      
  6  7  1  0      
  7  8  1  0      
  8  9  2  0      
  9 10  1  0      
 10 11  1  0      
 11 12  1  0      
 12 13  1  0      
 11 14  2  0      
 10 15  2  0      
 15 16  1  0      
 16 17  1  0      
 17 18  1  0      
 18 19  1  0      
 19 20  1  0      
 20 21  1  0      
 21 22  1  0      
 22 23  1  0      
 23 24  2  0      
 24 25  1  0      
 25 26  2  0      
 26 27  1  0      
 27 28  1  0      
 27 29  2  0      
 26 30  1  0      
 30 31  2  0      
 23 31  1  0      
 22 32  2  0      
 21 33  1  0      
 33 34  1  0      
 18 34  1  0      
 17 35  2  0      
 16 36  2  0      
  8 36  1  0      
  6 37  1  0      
 37 38  1  0      
  3 38  1  0      
  2 39  2  0      
 40 41  1  0      
 42 43  1  0      
 44 45  1  0      
M  END

>  <RackCode>
HYCPK72334

>  <Cat. No.>
HY-15313C

>  <Product Name>
CBB1007 (trihydrochloride)

>  <ROW>
J

>  <COLUMN>
14

>  <CAS No.>
2070015-03-9

>  <MWt>
643.99

>  <Target>
Histone Demethylase

>  <Saltdate>
Hydrochloride

>  <Smiles>
NC(N1CCN(CC1)CC2=CC(C(OC)=O)=CC(C(N3CCN(CC3)C(C4=CC=C(C=C4)C(N)=N)=O)=O)=C2)=N.[H]Cl.[H]Cl.[H]Cl

>  <Solvent>
DMSO Solution

>  <Batch No.>
15545

>  <Quantity>
10mM  * 50uL

>  <Pathway>
Epigenetics

>  <Synonyms>


>  <Formula>
C27H37Cl3N8O4

>  <Research_Area>
Cancer

>  <Clinical_Information>
No Development Reported

>  <SUPPLIER>
MedChemExpress

$$$$
Untitled Document
  ChemDraw12211615362D

 57 58  0  0  0  0  0  0  0  0999 V2000
   -6.4302    0.0000    0.0000 C   0  0  0  0  0  0  0  0  0  0  0  0
   -6.4302   -0.8250    0.0000 C   0  0  0  0  0  0  0  0  0  0  0  0
   -5.7158   -1.2375    0.0000 C   0  0  0  0  0  0  0  0  0  0  0  0
   -5.0013   -0.8250    0.0000 C   0  0  0  0  0  0  0  0  0  0  0  0
   -5.0013    0.0000    0.0000 C   0  0  0  0  0  0  0  0  0  0  0  0
   -5.7158    0.4125    0.0000 C   0  0  0  0  0  0  0  0  0  0  0  0
   -7.1447    0.4125    0.0000 C   0  0  0  0  0  0  0  0  0  0  0  0
   -7.8592    0.0000    0.0000 C   0  0  0  0  0  0  0  0  0  0  0  0
   -7.8592    0.8250    0.0000 C   0  0  0  0  0  0  0  0  0  0  0  0
   -7.1447    1.2375    0.0000 C   0  0  0  0  0  0  0  0  0  0  0  0
   -4.2868   -1.2375    0.0000 C   0  0  0  0  0  0  0  0  0  0  0  0
   -3.5724   -0.8250    0.0000 N   0  0  0  0  0  0  0  0  0  0  0  0
   -4.2868   -2.0625    0.0000 O   0  0  0  0  0  0  0  0  0  0  0  0
   -2.8579   -1.2375    0.0000 C   0  0  0  0  0  0  0  0  0  0  0  0
   -2.1434   -0.8250    0.0000 C   0  0  0  0  0  0  0  0  0  0  0  0
   -2.8579   -2.0625    0.0000 C   0  0  0  0  0  0  0  0  0  0  0  0
   -2.1434   -2.4750    0.0000 C   0  0  0  0  0  0  0  0  0  0  0  0
   -2.1434   -3.3000    0.0000 C   0  0  0  0  0  0  0  0  0  0  0  0
   -1.4289   -3.7125    0.0000 C   0  0  0  0  0  0  0  0  0  0  0  0
   -0.7145   -3.3000    0.0000 C   0  0  0  0  0  0  0  0  0  0  0  0
   -0.7145   -2.4750    0.0000 C   0  0  0  0  0  0  0  0  0  0  0  0
   -1.4289   -2.0625    0.0000 C   0  0  0  0  0  0  0  0  0  0  0  0
   -1.4289   -1.2375    0.0000 N   0  0  0  0  0  0  0  0  0  0  0  0
   -2.1434    0.0000    0.0000 O   0  0  0  0  0  0  0  0  0  0  0  0
   -0.7145   -0.8250    0.0000 C   0  0  0  0  0  0  0  0  0  0  0  0
   -0.0000   -1.2375    0.0000 C   0  0  0  0  0  0  0  0  0  0  0  0
   -0.7145    0.0000    0.0000 C   0  0  0  0  0  0  0  0  0  0  0  0
    0.7145   -0.8250    0.0000 N   0  0  0  0  0  0  0  0  0  0  0  0
   -0.0000   -2.0625    0.0000 O   0  0  0  0  0  0  0  0  0  0  0  0
    1.4289   -1.2375    0.0000 C   0  0  0  0  0  0  0  0  0  0  0  0
    2.1434   -0.8250    0.0000 C   0  0  0  0  0  0  0  0  0  0  0  0
    1.4289   -2.0625    0.0000 C   0  0  0  0  0  0  0  0  0  0  0  0
    2.1434   -2.4750    0.0000 C   0  0  0  0  0  0  0  0  0  0  0  0
    2.1434   -3.3000    0.0000 C   0  0  0  0  0  0  0  0  0  0  0  0
    2.8579   -2.0625    0.0000 C   0  0  0  0  0  0  0  0  0  0  0  0
    2.8579   -1.2375    0.0000 N   0  0  0  0  0  0  0  0  0  0  0  0
    2.1434    0.0000    0.0000 O   0  0  0  0  0  0  0  0  0  0  0  0
    3.5724   -0.8250    0.0000 C   0  0  0  0  0  0  0  0  0  0  0  0
    4.2868   -1.2375    0.0000 C   0  0  0  0  0  0  0  0  0  0  0  0
    3.5724    0.0000    0.0000 C   0  0  0  0  0  0  0  0  0  0  0  0
    4.2868    0.4125    0.0000 C   0  0  0  0  0  0  0  0  0  0  0  0
    4.2868    1.2375    0.0000 C   0  0  0  0  0  0  0  0  0  0  0  0
    5.0013    1.6500    0.0000 C   0  0  0  0  0  0  0  0  0  0  0  0
    5.0013    2.4750    0.0000 N   0  0  0  0  0  0  0  0  0  0  0  0
    5.7158    2.8875    0.0000 C   0  0  0  0  0  0  0  0  0  0  0  0
    4.2868    2.8875    0.0000 C   0  0  0  0  0  0  0  0  0  0  0  0
    4.2868    3.7125    0.0000 C   0  0  0  0  0  0  0  0  0  0  0  0
    5.7158    3.7125    0.0000 C   0  0  0  0  0  0  0  0  0  0  0  0
    4.2868   -2.0625    0.0000 O   0  0  0  0  0  0  0  0  0  0  0  0
    5.0013   -0.8250    0.0000 N   0  0  0  0  0  0  0  0  0  0  0  0
    5.7158   -1.2375    0.0000 C   0  0  0  0  0  0  0  0  0  0  0  0
    5.7158   -2.0625    0.0000 C   0  0  0  0  0  0  0  0  0  0  0  0
    6.4302   -2.4750    0.0000 O   0  0  0  0  0  0  0  0  0  0  0  0
    6.4302   -0.8250    0.0000 C   0  0  0  0  0  0  0  0  0  0  0  0
    7.1447   -1.2375    0.0000 O   0  0  0  0  0  0  0  0  0  0  0  0
    6.4302    0.0000    0.0000 O   0  0  0  0  0  0  0  0  0  0  0  0
    7.8592   -0.8250    0.0000 C   0  0  0  0  0  0  0  0  0  0  0  0
  1  2  2  0      
  2  3  1  0      
  3  4  2  0      
  4  5  1  0      
  5  6  2  0      
  6  1  1  0      
  1  7  1  0      
  7  8  1  0      
  7  9  1  0      
  7 10  1  0      
  4 11  1  0      
 11 12  1  0      
 11 13  2  0      
 12 14  1  0      
 14 15  1  0      
 14 16  1  6      
 16 17  1  0      
 17 18  2  0      
 18 19  1  0      
 19 20  2  0      
 20 21  1  0      
 21 22  2  0      
 22 17  1  0      
 15 23  1  0      
 15 24  2  0      
 23 25  1  0      
 25 26  1  0      
 25 27  1  1      
 26 28  1  0      
 26 29  2  0      
 28 30  1  0      
 30 31  1  0      
 30 32  1  6      
 32 33  1  0      
 33 34  1  0      
 33 35  1  0      
 31 36  1  0      
 31 37  2  0      
 36 38  1  0      
 38 39  1  0      
 38 40  1  1      
 40 41  1  0      
 41 42  1  0      
 42 43  1  0      
 43 44  1  0      
 44 45  1  0      
 44 46  1  0      
 46 47  1  0      
 45 48  1  0      
 39 49  2  0      
 39 50  1  0      
 50 51  1  0      
 51 52  1  6      
 52 53  1  0      
 51 54  1  0      
 54 55  1  0      
 54 56  2  0      
 55 57  1  0      
M  END

>  <RackCode>
HYCPK72334

>  <Cat. No.>
HY-100832

>  <Product Name>
UNC3866

>  <ROW>
K

>  <COLUMN>
14

>  <CAS No.>
1872382-47-2

>  <MWt>
795.02

>  <Target>
Histone Methyltransferase

>  <Saltdate>
Free Base

>  <Smiles>
CC(C)(C)C1=CC=C(C(N[C@@H](CC2=CC=CC=C2)C(N[C@@H](C)C(N[C@@H](CC(C)C)C(N[C@@H](CCCCN(CC)CC)C(N[C@H](C(OC)=O)CO)=O)=O)=O)=O)=O)C=C1

>  <Solvent>
DMSO Solution

>  <Batch No.>
22848

>  <Quantity>
10mM  * 50uL

>  <Pathway>
Epigenetics

>  <Synonyms>


>  <Formula>
C43H66N6O8

>  <Research_Area>
Cancer

>  <Clinical_Information>
No Development Reported

>  <SUPPLIER>
MedChemExpress

$$$$
Untitled Document
  ChemDraw12072317112D

 20 21  0  0  0  0  0  0  0  0999 V2000
   -0.3572   -0.8250    0.0000 C   0  0  0  0  0  0  0  0  0  0  0  0
   -1.0717   -0.4125    0.0000 C   0  0  0  0  0  0  0  0  0  0  0  0
   -1.7862   -0.8250    0.0000 C   0  0  0  0  0  0  0  0  0  0  0  0
   -2.5006   -0.4125    0.0000 C   0  0  0  0  0  0  0  0  0  0  0  0
   -2.5006    0.4125    0.0000 C   0  0  0  0  0  0  0  0  0  0  0  0
   -1.7862    0.8250    0.0000 N   0  0  0  0  0  0  0  0  0  0  0  0
   -1.0717    0.4125    0.0000 C   0  0  0  0  0  0  0  0  0  0  0  0
    0.3572   -1.2375    0.0000 N   0  0  0  0  0  0  0  0  0  0  0  0
   -0.3572    0.8250    0.0000 O   0  0  0  0  0  0  0  0  0  0  0  0
    0.3572    0.4125    0.0000 C   0  0  0  0  0  0  0  0  0  0  0  0
    1.0717    0.8250    0.0000 C   0  0  0  0  0  0  0  0  0  0  0  0
    1.0717    1.6500    0.0000 O   0  0  0  0  0  0  0  0  0  0  0  0
    3.2151   -0.4125    0.0000 O   0  0  0  0  0  0  0  0  0  0  0  0
    2.5006   -0.8250    0.0000 C   0  0  0  0  0  0  0  0  0  0  0  0
    1.7862   -0.4125    0.0000 C   0  0  0  0  0  0  0  0  0  0  0  0
    1.7862    0.4125    0.0000 N   0  0  0  0  0  0  0  0  0  0  0  0
    2.5006    0.8250    0.0000 C   0  0  0  0  0  0  0  0  0  0  0  0
    3.2151    0.4125    0.0000 C   0  0  0  0  0  0  0  0  0  0  0  0
   -3.2151    0.8250    0.0000 C   0  0  0  0  0  0  0  0  0  0  0  0
   -1.7862   -1.6500    0.0000 C   0  0  0  0  0  0  0  0  0  0  0  0
  1  2  1  0      
  2  3  1  0      
  3  4  2  0      
  4  5  1  0      
  5  6  2  0      
  6  7  1  0      
  2  7  2  0      
  1  8  3  0      
 10 11  1  0      
  9 10  1  0      
 11 12  2  0      
 13 14  1  0      
 14 15  1  0      
 15 16  1  0      
 16 17  1  0      
 17 18  1  0      
 13 18  1  0      
 11 16  1  0      
  7  9  1  0      
  5 19  1  0      
  3 20  1  0      
M  END

>  <RackCode>
HYCPK72334

>  <Cat. No.>
HY-162006

>  <Product Name>
Pim-1 kinase inhibitor 8

>  <ROW>
L

>  <COLUMN>
14

>  <CAS No.>
916038-47-6

>  <MWt>
275.30

>  <Target>
Pim; PKC

>  <Saltdate>


>  <Smiles>
N#CC1=C(OCC(N2CCOCC2)=O)N=C(C)C=C1C

>  <Solvent>
DMSO Solution

>  <Batch No.>
333803

>  <Quantity>
10mM  * 50uL

>  <Pathway>
Epigenetics; JAK/STAT Signaling; TGF-beta/Smad

>  <Synonyms>


>  <Formula>
C14H17N3O3

>  <Research_Area>
Cancer

>  <Clinical_Information>
No Development Reported

>  <SUPPLIER>
MedChemExpress

$$$$
Untitled Document
  ChemDraw06022215192D

 20 23  0  0  0  0  0  0  0  0999 V2000
    1.0445   -1.4206    0.0000 N   0  0  0  0  0  0  0  0  0  0  0  0
    0.7896   -0.6360    0.0000 N   0  0  0  0  0  0  0  0  0  0  0  0
   -0.0354   -0.6360    0.0000 C   0  0  0  0  0  0  0  0  0  0  0  0
   -0.2903   -1.4206    0.0000 C   0  0  0  0  0  0  0  0  0  0  0  0
    0.3771   -1.9056    0.0000 C   0  0  0  0  0  0  0  0  0  0  0  0
   -0.7028   -0.1511    0.0000 C   0  0  0  0  0  0  0  0  0  0  0  0
   -1.3703   -0.6360    0.0000 C   0  0  0  0  0  0  0  0  0  0  0  0
   -2.1773   -0.4645    0.0000 C   0  0  0  0  0  0  0  0  0  0  0  0
   -2.7293   -1.0776    0.0000 C   0  0  0  0  0  0  0  0  0  0  0  0
   -2.4743   -1.8622    0.0000 C   0  0  0  0  0  0  0  0  0  0  0  0
   -1.6674   -2.0337    0.0000 C   0  0  0  0  0  0  0  0  0  0  0  0
   -1.1153   -1.4206    0.0000 C   0  0  0  0  0  0  0  0  0  0  0  0
   -0.7028    0.6739    0.0000 O   0  0  0  0  0  0  0  0  0  0  0  0
    1.2745    0.0314    0.0000 C   0  0  0  0  0  0  0  0  0  0  0  0
    0.9390    0.7851    0.0000 C   0  0  0  0  0  0  0  0  0  0  0  0
    1.4239    1.4525    0.0000 C   0  0  0  0  0  0  0  0  0  0  0  0
    2.2444    1.3663    0.0000 C   0  0  0  0  0  0  0  0  0  0  0  0
    2.5799    0.6126    0.0000 C   0  0  0  0  0  0  0  0  0  0  0  0
    2.0950   -0.0548    0.0000 C   0  0  0  0  0  0  0  0  0  0  0  0
    2.7293    2.0337    0.0000 C   0  0  0  0  0  0  0  0  0  0  0  0
  1  2  1  0      
  2  3  1  0      
  3  4  2  0      
  4  5  1  0      
  1  5  2  0      
  6  7  1  0      
  7  8  1  0      
  8  9  2  0      
  9 10  1  0      
 10 11  2  0      
 11 12  1  0      
  7 12  2  0      
  3  6  1  0      
  4 12  1  0      
  6 13  2  0      
 14 15  1  0      
 15 16  2  0      
 16 17  1  0      
 17 18  2  0      
 18 19  1  0      
 14 19  2  0      
 17 20  1  0      
  2 14  1  0      
M  END

>  <RackCode>
HYCPK72334

>  <Cat. No.>
HY-146144

>  <Product Name>
HIF-IN-1

>  <ROW>
M

>  <COLUMN>
14

>  <CAS No.>
2393928-76-0

>  <MWt>
260.29

>  <Target>
HIF/HIF Prolyl-Hydroxylase

>  <Saltdate>


>  <Smiles>
O=C(C1=C2C=NN1C3=CC=C(C)C=C3)C4=C2C=CC=C4

>  <Solvent>
DMSO Solution

>  <Batch No.>
268719

>  <Quantity>
10mM  * 50uL

>  <Pathway>
Metabolic Enzyme/Protease

>  <Synonyms>


>  <Formula>
C17H12N2O

>  <Research_Area>
Cancer

>  <Clinical_Information>
No Development Reported

>  <SUPPLIER>
MedChemExpress

$$$$
Untitled Document
  ChemDraw08081709362D

 29 31  0  0  0  0  0  0  0  0999 V2000
   -1.7850   -1.2445    0.0000 O   0  0  0  0  0  0  0  0  0  0  0  0
   -2.4995   -1.6566    0.0000 C   0  0  0  0  0  0  0  0  0  0  0  0
   -3.2139   -1.2445    0.0000 C   0  0  0  0  0  0  0  0  0  0  0  0
   -2.4995   -2.4789    0.0000 O   0  0  0  0  0  0  0  0  0  0  0  0
   -1.7850   -0.4141    0.0000 C   0  0  0  0  0  0  0  0  0  0  0  0
   -1.0706    0.0021    0.0000 C   0  0  0  0  0  0  0  0  0  0  0  0
   -1.0706    0.8263    0.0000 C   0  0  0  0  0  0  0  0  0  0  0  0
   -0.3582    1.2424    0.0000 O   0  0  0  0  0  0  0  0  0  0  0  0
    0.3541    0.8263    0.0000 C   0  0  0  0  0  0  0  0  0  0  0  0
    0.3541    0.0021    0.0000 C   0  0  0  0  0  0  0  0  0  0  0  0
   -0.3582   -0.4141    0.0000 C   0  0  0  0  0  0  0  0  0  0  0  0
   -0.3582   -1.2445    0.0000 O   0  0  0  0  0  0  0  0  0  0  0  0
    1.0685    1.2445    0.0000 C   0  0  0  0  0  0  0  0  0  0  0  0
    1.0685    2.0668    0.0000 C   0  0  0  0  0  0  0  0  0  0  0  0
    1.7850    2.4789    0.0000 C   0  0  0  0  0  0  0  0  0  0  0  0
    2.4974    2.0668    0.0000 C   0  0  0  0  0  0  0  0  0  0  0  0
    2.4974    1.2445    0.0000 C   0  0  0  0  0  0  0  0  0  0  0  0
    1.7850    0.8263    0.0000 C   0  0  0  0  0  0  0  0  0  0  0  0
    3.2118    2.4789    0.0000 O   0  0  0  0  0  0  0  0  0  0  0  0
    3.9262    2.0668    0.0000 C   0  0  0  0  0  0  0  0  0  0  0  0
    4.6407    2.4789    0.0000 C   0  0  0  0  0  0  0  0  0  0  0  0
    3.9262    1.2445    0.0000 O   0  0  0  0  0  0  0  0  0  0  0  0
   -1.7850    1.2424    0.0000 C   0  0  0  0  0  0  0  0  0  0  0  0
   -2.4974    0.8263    0.0000 C   0  0  0  0  0  0  0  0  0  0  0  0
   -2.4974    0.0021    0.0000 C   0  0  0  0  0  0  0  0  0  0  0  0
   -3.2118    1.2445    0.0000 O   0  0  0  0  0  0  0  0  0  0  0  0
   -3.9262    0.8263    0.0000 C   0  0  0  0  0  0  0  0  0  0  0  0
   -4.6407    1.2445    0.0000 C   0  0  0  0  0  0  0  0  0  0  0  0
   -3.9262    0.0039    0.0000 O   0  0  0  0  0  0  0  0  0  0  0  0
  1  2  1  0      
  1  5  1  0      
  2  3  1  0      
  2  4  2  0      
  5  6  2  0      
  5 25  1  0      
  6  7  1  0      
  6 11  1  0      
  7  8  1  0      
  7 23  2  0      
  8  9  1  0      
 10  9  1  0      
  9 13  1  6      
 11 10  1  0      
 11 12  2  0      
 13 14  2  0      
 13 18  1  0      
 14 15  1  0      
 15 16  2  0      
 17 16  1  0      
 16 19  1  0      
 18 17  2  0      
 19 20  1  0      
 20 21  1  0      
 20 22  2  0      
 24 23  1  0      
 25 24  2  0      
 24 26  1  0      
 26 27  1  0      
 27 28  1  0      
 27 29  2  0      
M  END

>  <RackCode>
HYCPK72334

>  <Cat. No.>
HY-N3213

>  <Product Name>
Naringenin triacetate

>  <ROW>
N

>  <COLUMN>
14

>  <CAS No.>
3682-04-0

>  <MWt>
398.36

>  <Target>
Epigenetic Reader Domain

>  <Saltdate>
Free Base

>  <Smiles>
CC(OC1=C2C(O[C@H](C3=CC=C(OC(C)=O)C=C3)CC2=O)=CC(OC(C)=O)=C1)=O

>  <Solvent>
DMSO Solution

>  <Batch No.>
282195

>  <Quantity>
10mM  * 50uL

>  <Pathway>
Epigenetics

>  <Synonyms>


>  <Formula>
C21H18O8

>  <Research_Area>
Cancer

>  <Clinical_Information>
No Development Reported

>  <SUPPLIER>
MedChemExpress

$$$$
Untitled Document
  ChemDraw03192015082D

 19 21  0  0  0  0  0  0  0  0999 V2000
    0.0616   -1.7175    0.0000 C   0  0  0  0  0  0  0  0  0  0  0  0
    0.7761   -1.3050    0.0000 N   0  0  0  0  0  0  0  0  0  0  0  0
    0.7761   -0.4800    0.0000 C   0  0  0  0  0  0  0  0  0  0  0  0
    0.0616   -0.0675    0.0000 C   0  0  0  0  0  0  0  0  0  0  0  0
   -0.6529   -0.4800    0.0000 C   0  0  0  0  0  0  0  0  0  0  0  0
   -1.3673   -0.0675    0.0000 C   0  0  0  0  0  0  0  0  0  0  0  0
   -2.0818   -0.4800    0.0000 C   0  0  0  0  0  0  0  0  0  0  0  0
   -2.0818   -1.3050    0.0000 C   0  0  0  0  0  0  0  0  0  0  0  0
   -1.3673   -1.7175    0.0000 C   0  0  0  0  0  0  0  0  0  0  0  0
   -0.6529   -1.3050    0.0000 C   0  0  0  0  0  0  0  0  0  0  0  0
    0.0616   -2.5425    0.0000 O   0  0  0  0  0  0  0  0  0  0  0  0
    1.4906   -0.0675    0.0000 O   0  0  0  0  0  0  0  0  0  0  0  0
    0.0616    0.7575    0.0000 C   0  0  0  0  0  0  0  0  0  0  0  0
    0.8623    1.9905    0.0000 N   0  0  0  0  0  0  0  0  0  0  0  0
    0.7761    1.1700    0.0000 C   0  0  0  0  0  0  0  0  0  0  0  0
    1.5298    0.8344    0.0000 C   0  0  0  0  0  0  0  0  0  0  0  0
    2.0818    1.4475    0.0000 C   0  0  0  0  0  0  0  0  0  0  0  0
    1.6693    2.1620    0.0000 C   0  0  0  0  0  0  0  0  0  0  0  0
    0.2492    2.5425    0.0000 C   0  0  0  0  0  0  0  0  0  0  0  0
  1  2  1  0      
  2  3  1  0      
  3  4  1  0      
  4  5  1  0      
  5  6  1  0      
  6  7  2  0      
  7  8  1  0      
  8  9  2  0      
  9 10  1  0      
  1 10  1  0      
  5 10  2  0      
  1 11  2  0      
  3 12  2  0      
 14 15  1  0      
 15 16  2  0      
 16 17  1  0      
 17 18  2  0      
 14 18  1  0      
 14 19  1  0      
 13 15  1  0      
  4 13  2  0      
M  END

>  <RackCode>
HYCPK72334

>  <Cat. No.>
HY-108632

>  <Product Name>
BYK204165

>  <ROW>
O

>  <COLUMN>
14

>  <CAS No.>
1104546-89-5

>  <MWt>
252.27

>  <Target>
PARP

>  <Saltdate>


>  <Smiles>
O=C1NC(/C(C2=C1C=CC=C2)=C\C3=CC=CN3C)=O

>  <Solvent>
DMSO Solution

>  <Batch No.>
310604

>  <Quantity>
10mM  * 50uL

>  <Pathway>
Cell Cycle/DNA Damage; Epigenetics

>  <Synonyms>


>  <Formula>
C15H12N2O2

>  <Research_Area>
Cancer

>  <Clinical_Information>
No Development Reported

>  <SUPPLIER>
MedChemExpress

$$$$
Untitled Document
  ChemDraw09031909372D

 22 23  0  0  0  0  0  0  0  0999 V2000
    3.4403    1.6066    0.0000 C   0  0  0  0  0  0  0  0  0  0  0  0
    2.7258    1.1941    0.0000 C   0  0  0  0  0  0  0  0  0  0  0  0
    2.7258    0.3691    0.0000 C   0  0  0  0  0  0  0  0  0  0  0  0
    2.0114   -0.0434    0.0000 C   0  0  0  0  0  0  0  0  0  0  0  0
    1.2969    0.3691    0.0000 C   0  0  0  0  0  0  0  0  0  0  0  0
    1.2969    1.1941    0.0000 C   0  0  0  0  0  0  0  0  0  0  0  0
    2.0114    1.6066    0.0000 C   0  0  0  0  0  0  0  0  0  0  0  0
    4.1547    2.0191    0.0000 N   0  0  0  0  0  0  0  0  0  0  0  0
   -0.3107   -1.0354    0.0000 S   0  0  0  0  0  0  0  0  0  0  0  0
   -0.7232   -0.3209    0.0000 C   0  0  0  0  0  0  0  0  0  0  0  0
   -0.1712    0.2922    0.0000 N   0  0  0  0  0  0  0  0  0  0  0  0
    0.5825   -0.0434    0.0000 C   0  0  0  0  0  0  0  0  0  0  0  0
    0.4962   -0.8638    0.0000 C   0  0  0  0  0  0  0  0  0  0  0  0
   -1.5437   -0.2347    0.0000 N   0  0  0  0  0  0  0  0  0  0  0  0
   -2.0286   -0.9021    0.0000 N   0  0  0  0  0  0  0  0  0  0  0  0
   -2.8490   -0.8159    0.0000 C   0  0  0  0  0  0  0  0  0  0  0  0
   -3.4011   -1.4290    0.0000 C   0  0  0  0  0  0  0  0  0  0  0  0
   -4.1547   -1.0934    0.0000 C   0  0  0  0  0  0  0  0  0  0  0  0
   -4.0685   -0.2729    0.0000 C   0  0  0  0  0  0  0  0  0  0  0  0
   -3.2615   -0.1014    0.0000 C   0  0  0  0  0  0  0  0  0  0  0  0
    1.2757   -2.0191    0.0000 H   0  0  0  0  0  0  0  0  0  0  0  0
    2.0995   -2.0189    0.0000 Br  0  0  0  0  0  0  0  0  0  0  0  0
  1  2  1  0      
  2  3  1  0      
  3  4  2  0      
  4  5  1  0      
  5  6  2  0      
  6  7  1  0      
  2  7  2  0      
  1  8  3  0      
  9 10  1  0      
 10 11  2  0      
 11 12  1  0      
 12 13  2  0      
  9 13  1  0      
 14 15  1  0      
 16 17  1  0      
 17 18  1  0      
 18 19  1  0      
 19 20  1  0      
 16 20  1  0      
 15 16  2  0      
 10 14  1  0      
  5 12  1  0      
 21 22  1  0      
M  END

>  <RackCode>
HYCPK72334

>  <Cat. No.>
HY-16706A

>  <Product Name>
Remodelin (hydrobromide)

>  <ROW>
P

>  <COLUMN>
14

>  <CAS No.>
1622921-15-6

>  <MWt>
363.28

>  <Target>
Histone Acetyltransferase

>  <Saltdate>
Hydrobromide

>  <Smiles>
N#CC1=CC=C(C2=CSC(N/N=C3CCCC/3)=N2)C=C1.[H]Br

>  <Solvent>
DMSO Solution

>  <Batch No.>
264002

>  <Quantity>
10mM  * 50uL

>  <Pathway>
Epigenetics

>  <Synonyms>


>  <Formula>
C15H15BrN4S

>  <Research_Area>
Cancer

>  <Clinical_Information>
No Development Reported

>  <SUPPLIER>
MedChemExpress

$$$$
Untitled Document
  ChemDraw05282109192D

 23 24  0  0  0  0  0  0  0  0999 V2000
    2.8580    1.4437    0.0000 C   0  0  0  0  0  0  0  0  0  0  0  0
    2.1435    1.0313    0.0000 C   0  0  0  0  0  0  0  0  0  0  0  0
    2.1435    0.2062    0.0000 C   0  0  0  0  0  0  0  0  0  0  0  0
    1.4289   -0.2062    0.0000 C   0  0  0  0  0  0  0  0  0  0  0  0
    0.7145    0.2062    0.0000 C   0  0  0  0  0  0  0  0  0  0  0  0
    0.7145    1.0313    0.0000 C   0  0  0  0  0  0  0  0  0  0  0  0
    1.4289    1.4437    0.0000 C   0  0  0  0  0  0  0  0  0  0  0  0
    2.8580    2.2688    0.0000 O   0  0  0  0  0  0  0  0  0  0  0  0
    3.5725    1.0313    0.0000 N   0  0  0  0  0  0  0  0  0  0  0  0
    4.2869    1.4437    0.0000 O   0  0  0  0  0  0  0  0  0  0  0  0
   -0.0000   -0.2062    0.0000 N   0  0  0  0  0  0  0  0  0  0  0  0
   -0.7145    0.2062    0.0000 C   0  0  0  0  0  0  0  0  0  0  0  0
   -1.4289   -0.2062    0.0000 C   0  0  0  0  0  0  0  0  0  0  0  0
   -1.4289   -1.0313    0.0000 C   0  0  0  0  0  0  0  0  0  0  0  0
   -2.1435   -1.4437    0.0000 C   0  0  0  0  0  0  0  0  0  0  0  0
   -2.8580   -1.0313    0.0000 C   0  0  0  0  0  0  0  0  0  0  0  0
   -2.8580   -0.2062    0.0000 C   0  0  0  0  0  0  0  0  0  0  0  0
   -2.1435    0.2062    0.0000 C   0  0  0  0  0  0  0  0  0  0  0  0
   -0.7145    1.0313    0.0000 O   0  0  0  0  0  0  0  0  0  0  0  0
   -3.5725   -1.4437    0.0000 C   0  0  0  0  0  0  0  0  0  0  0  0
   -3.5725   -2.2688    0.0000 C   0  0  0  0  0  0  0  0  0  0  0  0
   -4.2869   -1.8564    0.0000 C   0  0  0  0  0  0  0  0  0  0  0  0
   -4.2869   -1.0313    0.0000 C   0  0  0  0  0  0  0  0  0  0  0  0
  1  2  1  0      
  2  3  1  0      
  3  4  2  0      
  4  5  1  0      
  5  6  2  0      
  6  7  1  0      
  2  7  2  0      
  1  8  2  0      
  1  9  1  0      
  9 10  1  0      
 12 13  1  0      
 13 14  1  0      
 14 15  2  0      
 15 16  1  0      
 16 17  2  0      
 17 18  1  0      
 13 18  2  0      
 12 19  2  0      
 20 21  1  0      
 20 22  1  0      
 20 23  1  0      
 16 20  1  0      
 11 12  1  0      
  5 11  1  0      
M  END

>  <RackCode>
HYCPK72334

>  <Cat. No.>
HY-138831

>  <Product Name>
AES-350

>  <ROW>
A

>  <COLUMN>
15

>  <CAS No.>
847249-57-4

>  <MWt>
312.36

>  <Target>
Apoptosis; HDAC

>  <Saltdate>


>  <Smiles>
O=C(NO)C1=CC=C(NC(C2=CC=C(C(C)(C)C)C=C2)=O)C=C1

>  <Solvent>
DMSO Solution

>  <Batch No.>
105825

>  <Quantity>
10mM  * 50uL

>  <Pathway>
Apoptosis; Cell Cycle/DNA Damage; Epigenetics

>  <Synonyms>


>  <Formula>
C18H20N2O3

>  <Research_Area>
Cancer

>  <Clinical_Information>
No Development Reported

>  <SUPPLIER>
MedChemExpress

$$$$
Untitled Document
  ChemDraw05062410272D

 26 29  0  0  0  0  0  0  0  0999 V2000
    0.8747   -1.3263    0.0000 C   0  0  0  0  0  0  0  0  0  0  0  0
   -0.2360   -1.3263    0.0000 C   0  0  0  0  0  0  0  0  0  0  0  0
   -0.5792   -0.9885    0.0000 C   0  0  0  0  0  0  0  0  0  0  0  0
    0.3207   -0.7804    0.0000 O   0  0  0  0  0  0  0  0  0  0  0  0
    1.2193   -0.9885    0.0000 C   0  0  0  0  0  0  0  0  0  0  0  0
   -0.2360   -2.1513    0.0000 O   0  0  0  0  0  0  0  0  0  0  0  0
    0.8747   -2.1513    0.0000 O   0  0  0  0  0  0  0  0  0  0  0  0
    1.2193   -0.1635    0.0000 N   0  0  0  0  0  0  0  0  0  0  0  0
    2.0032    0.0938    0.0000 C   0  0  0  0  0  0  0  0  0  0  0  0
    2.0032    0.9188    0.0000 C   0  0  0  0  0  0  0  0  0  0  0  0
    1.2154    1.1714    0.0000 C   0  0  0  0  0  0  0  0  0  0  0  0
    0.7324    0.5025    0.0000 C   0  0  0  0  0  0  0  0  0  0  0  0
    2.7189   -0.3166    0.0000 N   0  0  0  0  0  0  0  0  0  0  0  0
    3.4321    0.0938    0.0000 C   0  0  0  0  0  0  0  0  0  0  0  0
    3.4321    0.9188    0.0000 N   0  0  0  0  0  0  0  0  0  0  0  0
    2.7189    1.3292    0.0000 C   0  0  0  0  0  0  0  0  0  0  0  0
    2.7195    2.1513    0.0000 N   0  0  0  0  0  0  0  0  0  0  0  0
   -0.5792   -0.1635    0.0000 C   0  0  0  0  0  0  0  0  0  0  0  0
   -1.2912    0.2476    0.0000 C   0  0  0  0  0  0  0  0  0  0  0  0
   -1.2912    1.0726    0.0000 C   0  0  0  0  0  0  0  0  0  0  0  0
   -2.0056    1.4851    0.0000 C   0  0  0  0  0  0  0  0  0  0  0  0
   -2.7201    1.0726    0.0000 C   0  0  0  0  0  0  0  0  0  0  0  0
   -2.7201    0.2476    0.0000 C   0  0  0  0  0  0  0  0  0  0  0  0
   -2.0056   -0.1649    0.0000 C   0  0  0  0  0  0  0  0  0  0  0  0
   -3.4321    1.4837    0.0000 Cl  0  0  0  0  0  0  0  0  0  0  0  0
   -1.2937   -0.5760    0.0000 O   0  0  0  0  0  0  0  0  0  0  0  0
  1  2  1  1      
  3  2  1  1      
  3  4  1  0      
  4  5  1  0      
  5  1  1  1      
  2  6  1  0      
  1  7  1  0      
  5  8  1  0      
  8  9  1  0      
  9 10  1  0      
 10 11  1  0      
 11 12  2  0      
 12  8  1  0      
  9 13  2  0      
 13 14  1  0      
 14 15  2  0      
 15 16  1  0      
 16 10  2  0      
 16 17  1  0      
  3 18  1  0      
 18 19  1  0      
 19 20  2  0      
 20 21  1  0      
 21 22  2  0      
 22 23  1  0      
 23 24  2  0      
 24 19  1  0      
 22 25  1  0      
 18 26  1  1      
M  END

>  <RackCode>
HYCPK72334

>  <Cat. No.>
HY-160865

>  <Product Name>
PRMT5-IN-35

>  <ROW>
B

>  <COLUMN>
15

>  <CAS No.>
1989620-03-2

>  <MWt>
376.79

>  <Target>
Histone Methyltransferase

>  <Saltdate>


>  <Smiles>
O[C@H]1[C@@H](O)[C@H](N2C3=NC=NC(N)=C3C=C2)O[C@@H]1[C@H](O)C4=CC=C(Cl)C=C4

>  <Solvent>
DMSO Solution

>  <Batch No.>
420871

>  <Quantity>
10mM  * 50uL

>  <Pathway>
Epigenetics

>  <Synonyms>


>  <Formula>
C17H17ClN4O4

>  <Research_Area>
Cancer

>  <Clinical_Information>
No Development Reported

>  <SUPPLIER>
MedChemExpress

$$$$
Untitled Document
  ChemDraw09292015462D

 43 48  0  0  0  0  0  0  0  0999 V2000
   -1.4362   -0.9314    0.0000 O   0  0  0  0  0  0  0  0  0  0  0  0
   -0.8275    2.0240    0.0000 O   0  0  0  0  0  0  0  0  0  0  0  0
   -2.5770    1.5097    0.0000 C   0  0  0  0  0  0  0  0  0  0  0  0
   -2.3284   -1.1592    0.0000 O   0  0  0  0  0  0  0  0  0  0  0  0
   -3.1354   -1.3307    0.0000 C   0  0  0  0  0  0  0  0  0  0  0  0
   -3.6874   -0.7176    0.0000 O   0  0  0  0  0  0  0  0  0  0  0  0
   -0.8275   -1.4383    0.0000 O   0  0  0  0  0  0  0  0  0  0  0  0
   -3.3834    0.2929    0.0000 C   0  0  0  0  0  0  0  0  0  0  0  0
    0.6748   -1.0954    0.0000 C   0  0  0  0  0  0  0  0  0  0  0  0
    1.4906   -0.9725    0.0000 O   0  0  0  0  0  0  0  0  0  0  0  0
    2.0049   -1.6175    0.0000 C   0  0  0  0  0  0  0  0  0  0  0  0
    1.7035   -2.3855    0.0000 O   0  0  0  0  0  0  0  0  0  0  0  0
    0.5532    3.6846    0.0000 C   0  0  0  0  0  0  0  0  0  0  0  0
    1.1789    3.1469    0.0000 C   0  0  0  0  0  0  0  0  0  0  0  0
   -1.2889    0.7054    0.0000 C   0  0  0  0  0  0  0  0  0  0  0  0
   -1.2889   -0.1196    0.0000 C   0  0  0  0  0  0  0  0  0  0  0  0
   -0.6439    1.2198    0.0000 C   0  0  0  0  0  0  0  0  0  0  0  0
   -1.7520    1.5097    0.0000 C   0  0  0  0  0  0  0  0  0  0  0  0
   -2.0735    0.9603    0.0000 C   0  0  0  0  0  0  0  0  0  0  0  0
   -2.0735   -0.3746    0.0000 C   0  0  0  0  0  0  0  0  0  0  0  0
   -0.6439   -0.6340    0.0000 C   0  0  0  0  0  0  0  0  0  0  0  0
    0.1604    1.0362    0.0000 C   0  0  0  0  0  0  0  0  0  0  0  0
   -1.3803    2.3602    0.0000 C   0  0  0  0  0  0  0  0  0  0  0  0
   -2.5584    0.2929    0.0000 C   0  0  0  0  0  0  0  0  0  0  0  0
    0.1604   -0.4504    0.0000 C   0  0  0  0  0  0  0  0  0  0  0  0
    0.2285    1.9618    0.0000 C   0  0  0  0  0  0  0  0  0  0  0  0
    0.5184    0.2929    0.0000 C   0  0  0  0  0  0  0  0  0  0  0  0
   -0.4754    2.5667    0.0000 C   0  0  0  0  0  0  0  0  0  0  0  0
    0.4004    2.8738    0.0000 C   0  0  0  0  0  0  0  0  0  0  0  0
   -3.3904   -2.1153    0.0000 C   0  0  0  0  0  0  0  0  0  0  0  0
   -4.1973   -2.2868    0.0000 C   0  0  0  0  0  0  0  0  0  0  0  0
   -2.8383   -2.7284    0.0000 C   0  0  0  0  0  0  0  0  0  0  0  0
   -4.4523   -3.0715    0.0000 C   0  0  0  0  0  0  0  0  0  0  0  0
   -3.0933   -3.5130    0.0000 C   0  0  0  0  0  0  0  0  0  0  0  0
   -3.9002   -3.6846    0.0000 C   0  0  0  0  0  0  0  0  0  0  0  0
    2.8207   -1.4945    0.0000 C   0  0  0  0  0  0  0  0  0  0  0  0
    3.1221   -0.7266    0.0000 C   0  0  0  0  0  0  0  0  0  0  0  0
    3.3351   -2.1395    0.0000 C   0  0  0  0  0  0  0  0  0  0  0  0
    3.9379   -0.6036    0.0000 C   0  0  0  0  0  0  0  0  0  0  0  0
    4.1509   -2.0166    0.0000 C   0  0  0  0  0  0  0  0  0  0  0  0
    4.4523   -1.2486    0.0000 C   0  0  0  0  0  0  0  0  0  0  0  0
    1.0465    1.8549    0.0000 H   0  0  0  0  0  0  0  0  0  0  0  0
   -0.7041    3.3593    0.0000 H   0  0  0  0  0  0  0  0  0  0  0  0
 16  1  1  1      
  2 17  2  0      
 18  3  1  6      
  4  5  1  0      
 20  4  1  1      
  5  6  2  0      
  5 30  1  0      
 21  7  1  1      
  8 24  1  0      
  9 10  1  0      
  9 25  1  0      
 10 11  1  0      
 11 12  2  0      
 11 36  1  0      
 13 29  1  0      
 14 29  1  0      
 15 16  1  0      
 15 17  1  0      
 15 18  1  0      
 15 19  1  6      
 16 20  1  0      
 16 21  1  0      
 22 17  1  1      
 18 23  1  0      
 19 24  2  0      
 20 24  1  0      
 21 25  1  0      
 22 26  1  0      
 22 27  1  0      
 23 28  1  0      
 25 27  2  0      
 26 28  1  0      
 26 29  1  0      
 26 42  1  6      
 28 29  1  0      
 28 43  1  6      
 30 31  2  0      
 30 32  1  0      
 31 33  1  0      
 32 34  2  0      
 33 35  2  0      
 34 35  1  0      
 36 37  2  0      
 36 38  1  0      
 37 39  1  0      
 38 40  2  0      
 39 41  2  0      
 40 41  1  0      
M  END

>  <RackCode>
HYCPK72334

>  <Cat. No.>
HY-137295

>  <Product Name>
Ingenol 3,20-dibenzoate

>  <ROW>
C

>  <COLUMN>
15

>  <CAS No.>
59086-90-7

>  <MWt>
556.65

>  <Target>
Apoptosis; PKC

>  <Saltdate>
Free Base

>  <Smiles>
O[C@]([C@H]1OC(C2=CC=CC=C2)=O)([C@@H](C(COC(C3=CC=CC=C3)=O)=C4)O)[C@]([C@@H]5C)(C=C1C)C([C@H]4[C@@](C(C)6C)([H])[C@@]6([H])C5)=O

>  <Solvent>
DMSO Solution

>  <Batch No.>
117957

>  <Quantity>
10mM  * 50uL

>  <Pathway>
Apoptosis; Epigenetics; TGF-beta/Smad

>  <Synonyms>


>  <Formula>
C34H36O7

>  <Research_Area>
Inflammation/Immunology

>  <Clinical_Information>
No Development Reported

>  <SUPPLIER>
MedChemExpress

$$$$
Untitled Document
  ChemDraw06102109102D

 23 22  0  0  0  0  0  0  0  0999 V2000
    2.1434    0.5949    0.0000 C   0  0  0  0  0  0  0  0  0  0  0  0
    2.8579    0.1824    0.0000 C   0  0  0  0  0  0  0  0  0  0  0  0
    3.5724    0.5949    0.0000 C   0  0  0  0  0  0  0  0  0  0  0  0
    4.2868    0.1824    0.0000 C   0  0  0  0  0  0  0  0  0  0  0  0
    4.2868   -0.6426    0.0000 C   0  0  0  0  0  0  0  0  0  0  0  0
    3.5724   -1.0551    0.0000 C   0  0  0  0  0  0  0  0  0  0  0  0
    2.8579   -0.6426    0.0000 C   0  0  0  0  0  0  0  0  0  0  0  0
    2.1434    1.4199    0.0000 O   0  0  0  0  0  0  0  0  0  0  0  0
    1.4289    0.1824    0.0000 N   0  0  0  0  0  0  0  0  0  0  0  0
    0.7145    0.5949    0.0000 C   0  0  0  0  0  0  0  0  0  0  0  0
   -0.0000    0.1824    0.0000 C   0  0  0  0  0  0  0  0  0  0  0  0
   -0.7145    0.5949    0.0000 C   0  0  0  0  0  0  0  0  0  0  0  0
   -1.4289    0.1824    0.0000 C   0  0  0  0  0  0  0  0  0  0  0  0
   -2.1434    0.5949    0.0000 N   0  0  0  0  0  0  0  0  0  0  0  0
   -2.8579    0.1824    0.0000 C   0  0  0  0  0  0  0  0  0  0  0  0
   -3.5724    0.5949    0.0000 C   0  0  0  0  0  0  0  0  0  0  0  0
   -2.8579   -0.6426    0.0000 N   0  0  0  0  0  0  0  0  0  0  0  0
   -4.2868    0.1824    0.0000 Cl  0  0  0  0  0  0  0  0  0  0  0  0
    0.7145    1.4199    0.0000 C   0  0  0  0  0  0  0  0  0  0  0  0
   -0.0000    1.8324    0.0000 O   0  0  0  0  0  0  0  0  0  0  0  0
    1.4289    1.8324    0.0000 N   0  0  0  0  0  0  0  0  0  0  0  0
   -0.0371   -1.8324    0.0000 H   0  0  0  0  0  0  0  0  0  0  0  0
    0.7879   -1.8324    0.0000 Cl  0  0  0  0  0  0  0  0  0  0  0  0
  1  2  1  0      
  2  3  1  0      
  3  4  2  0      
  4  5  1  0      
  5  6  2  0      
  6  7  1  0      
  2  7  2  0      
  1  8  2  0      
  1  9  1  0      
 10 11  1  0      
 11 12  1  0      
 12 13  1  0      
 15 16  1  0      
 15 17  2  0      
 16 18  1  0      
 14 15  1  0      
 13 14  1  0      
 19 20  2  0      
 19 21  1  0      
 10 19  1  6      
  9 10  1  0      
 22 23  1  0      
M  END

>  <RackCode>
HYCPK72334

>  <Cat. No.>
HY-100574D

>  <Product Name>
D-Cl-amidine (hydrochloride)

>  <ROW>
D

>  <COLUMN>
15

>  <CAS No.>
2985338-61-0

>  <MWt>
347.24

>  <Target>
Apoptosis; Protein Arginine Deiminase

>  <Saltdate>
Hydrochloride

>  <Smiles>
O=C(N[C@@H](C(N)=O)CCCNC(CCl)=N)C1=CC=CC=C1.[H]Cl

>  <Solvent>
DMSO Solution

>  <Batch No.>
539190

>  <Quantity>
10mM  * 50uL

>  <Pathway>
Apoptosis; Epigenetics

>  <Synonyms>


>  <Formula>
C14H20Cl2N4O2

>  <Research_Area>
Cancer

>  <Clinical_Information>
No Development Reported

>  <SUPPLIER>
MedChemExpress

$$$$
Untitled Document
  ChemDraw03261910542D

 23 25  0  0  0  0  0  0  0  0999 V2000
   -0.0000    0.6188    0.0000 N   0  0  0  0  0  0  0  0  0  0  0  0
    0.7145    0.2063    0.0000 C   0  0  0  0  0  0  0  0  0  0  0  0
    0.7145   -0.6188    0.0000 N   0  0  0  0  0  0  0  0  0  0  0  0
   -0.0000   -1.0313    0.0000 C   0  0  0  0  0  0  0  0  0  0  0  0
   -0.7145   -0.6188    0.0000 C   0  0  0  0  0  0  0  0  0  0  0  0
   -1.4289   -1.0313    0.0000 C   0  0  0  0  0  0  0  0  0  0  0  0
   -2.1434   -0.6188    0.0000 C   0  0  0  0  0  0  0  0  0  0  0  0
   -2.1434    0.2063    0.0000 C   0  0  0  0  0  0  0  0  0  0  0  0
   -1.4289    0.6188    0.0000 C   0  0  0  0  0  0  0  0  0  0  0  0
   -0.7145    0.2063    0.0000 C   0  0  0  0  0  0  0  0  0  0  0  0
   -0.0000   -1.8563    0.0000 O   0  0  0  0  0  0  0  0  0  0  0  0
    1.4289    0.6188    0.0000 C   0  0  0  0  0  0  0  0  0  0  0  0
    2.1434    0.2063    0.0000 S   0  0  0  0  0  0  0  0  0  0  0  0
    2.8579    0.6188    0.0000 C   0  0  0  0  0  0  0  0  0  0  0  0
    2.8579    1.4438    0.0000 N   0  0  0  0  0  0  0  0  0  0  0  0
    3.5724    1.8563    0.0000 C   0  0  0  0  0  0  0  0  0  0  0  0
    4.2868    1.4438    0.0000 C   0  0  0  0  0  0  0  0  0  0  0  0
    4.2868    0.6188    0.0000 C   0  0  0  0  0  0  0  0  0  0  0  0
    3.5724    0.2063    0.0000 N   0  0  0  0  0  0  0  0  0  0  0  0
   -2.8579    0.6188    0.0000 C   0  0  0  0  0  0  0  0  0  0  0  0
   -3.5724    1.0313    0.0000 C   0  0  0  0  0  0  0  0  0  0  0  0
   -4.2868    1.4438    0.0000 C   0  0  0  0  0  0  0  0  0  0  0  0
   -1.4289    1.4438    0.0000 C   0  0  0  0  0  0  0  0  0  0  0  0
  1  2  2  0      
  2  3  1  0      
  3  4  1  0      
  4  5  1  0      
  5  6  1  0      
  6  7  2  0      
  7  8  1  0      
  8  9  2  0      
  9 10  1  0      
  1 10  1  0      
  5 10  2  0      
  4 11  2  0      
 14 15  1  0      
 15 16  2  0      
 16 17  1  0      
 17 18  2  0      
 18 19  1  0      
 14 19  2  0      
 13 14  1  0      
 12 13  1  0      
  2 12  1  0      
 20 21  3  0      
 21 22  1  0      
  8 20  1  0      
  9 23  1  0      
M  END

>  <RackCode>
HYCPK72334

>  <Cat. No.>
HY-125218

>  <Product Name>
PARP11 inhibitor ITK7

>  <ROW>
E

>  <COLUMN>
15

>  <CAS No.>
2411890-36-1

>  <MWt>
322.38

>  <Target>
PARP

>  <Saltdate>


>  <Smiles>
O=C1NC(CSC2=NC=CC=N2)=NC3=C1C=CC(C#CC)=C3C

>  <Solvent>
DMSO Solution

>  <Batch No.>
263475

>  <Quantity>
10mM  * 50uL

>  <Pathway>
Cell Cycle/DNA Damage; Epigenetics

>  <Synonyms>
ITK7

>  <Formula>
C17H14N4OS

>  <Research_Area>
Cancer

>  <Clinical_Information>
No Development Reported

>  <SUPPLIER>
MedChemExpress

$$$$
Untitled Document
  ChemDraw10121816182D

 33 36  0  0  0  0  0  0  0  0999 V2000
   -5.0013   -0.8250    0.0000 C   0  0  0  0  0  0  0  0  0  0  0  0
   -5.0013   -1.6500    0.0000 C   0  0  0  0  0  0  0  0  0  0  0  0
   -5.7158   -2.0625    0.0000 C   0  0  0  0  0  0  0  0  0  0  0  0
   -6.4302   -1.6500    0.0000 C   0  0  0  0  0  0  0  0  0  0  0  0
   -6.4302   -0.8250    0.0000 C   0  0  0  0  0  0  0  0  0  0  0  0
   -5.7158   -0.4125    0.0000 C   0  0  0  0  0  0  0  0  0  0  0  0
   -2.8579   -0.4125    0.0000 C   0  0  0  0  0  0  0  0  0  0  0  0
   -3.5724   -0.8250    0.0000 C   0  0  0  0  0  0  0  0  0  0  0  0
   -4.2868   -0.4125    0.0000 C   0  0  0  0  0  0  0  0  0  0  0  0
   -2.8579    0.4125    0.0000 O   0  0  0  0  0  0  0  0  0  0  0  0
   -2.1434   -0.8250    0.0000 N   0  0  0  0  0  0  0  0  0  0  0  0
   -1.4289   -0.4125    0.0000 C   0  0  0  0  0  0  0  0  0  0  0  0
   -1.4289    0.4125    0.0000 C   0  0  0  0  0  0  0  0  0  0  0  0
   -0.7145    0.8250    0.0000 C   0  0  0  0  0  0  0  0  0  0  0  0
    0.0000    0.4125    0.0000 C   0  0  0  0  0  0  0  0  0  0  0  0
    0.0000   -0.4125    0.0000 C   0  0  0  0  0  0  0  0  0  0  0  0
   -0.7145   -0.8250    0.0000 C   0  0  0  0  0  0  0  0  0  0  0  0
    0.7145    0.8250    0.0000 C   0  0  0  0  0  0  0  0  0  0  0  0
    0.7145    1.6500    0.0000 O   0  0  0  0  0  0  0  0  0  0  0  0
    1.4289    0.4125    0.0000 N   0  0  0  0  0  0  0  0  0  0  0  0
    2.1434    0.8250    0.0000 C   0  0  0  0  0  0  0  0  0  0  0  0
    2.1434    1.6500    0.0000 C   0  0  0  0  0  0  0  0  0  0  0  0
    2.8579    2.0625    0.0000 C   0  0  0  0  0  0  0  0  0  0  0  0
    3.5724    1.6500    0.0000 C   0  0  0  0  0  0  0  0  0  0  0  0
    3.5724    0.8250    0.0000 C   0  0  0  0  0  0  0  0  0  0  0  0
    2.8579    0.4125    0.0000 C   0  0  0  0  0  0  0  0  0  0  0  0
    4.2868    2.0625    0.0000 O   0  0  0  0  0  0  0  0  0  0  0  0
    5.0013    1.6500    0.0000 C   0  0  0  0  0  0  0  0  0  0  0  0
    5.7158    2.0625    0.0000 C   0  0  0  0  0  0  0  0  0  0  0  0
    6.4302    1.6500    0.0000 C   0  0  0  0  0  0  0  0  0  0  0  0
    6.4302    0.8250    0.0000 C   0  0  0  0  0  0  0  0  0  0  0  0
    5.7158    0.4125    0.0000 C   0  0  0  0  0  0  0  0  0  0  0  0
    5.0013    0.8250    0.0000 C   0  0  0  0  0  0  0  0  0  0  0  0
  1  2  1  0      
  2  3  2  0      
  3  4  1  0      
  4  5  2  0      
  5  6  1  0      
  1  6  2  0      
  7  8  1  0      
  8  9  1  0      
  7 10  2  0      
  7 11  1  0      
  1  9  1  0      
 12 13  1  0      
 13 14  2  0      
 14 15  1  0      
 15 16  2  0      
 16 17  1  0      
 12 17  2  0      
 18 19  2  0      
 21 22  1  0      
 22 23  2  0      
 23 24  1  0      
 24 25  2  0      
 25 26  1  0      
 21 26  2  0      
 28 29  1  0      
 29 30  2  0      
 30 31  1  0      
 31 32  2  0      
 32 33  1  0      
 28 33  2  0      
 27 28  1  0      
 24 27  1  0      
 20 21  1  0      
 18 20  1  0      
 15 18  1  0      
 11 12  1  0      
M  END

>  <RackCode>
HYCPK72334

>  <Cat. No.>
HY-119017

>  <Product Name>
SB-429201

>  <ROW>
F

>  <COLUMN>
15

>  <CAS No.>
1027971-34-1

>  <MWt>
436.50

>  <Target>
HDAC

>  <Saltdate>


>  <Smiles>
O=C(NC1=CC=C(C(NC2=CC=C(OC3=CC=CC=C3)C=C2)=O)C=C1)CCC4=CC=CC=C4

>  <Solvent>
DMSO Solution

>  <Batch No.>
149300

>  <Quantity>
10mM  * 50uL

>  <Pathway>
Cell Cycle/DNA Damage; Epigenetics

>  <Synonyms>


>  <Formula>
C28H24N2O3

>  <Research_Area>
Cancer

>  <Clinical_Information>
No Development Reported

>  <SUPPLIER>
MedChemExpress

$$$$
Untitled Document
  ChemDraw08242416522D

 55 61  0  0  0  0  0  0  0  0999 V2000
   -3.5426    3.6680    0.0000 N   0  0  0  0  0  0  0  0  0  0  0  0
   -2.7383    3.4844    0.0000 C   0  0  0  0  0  0  0  0  0  0  0  0
   -2.3803    2.7411    0.0000 C   0  0  0  0  0  0  0  0  0  0  0  0
   -2.7383    1.9978    0.0000 N   0  0  0  0  0  0  0  0  0  0  0  0
   -3.5426    1.8142    0.0000 C   0  0  0  0  0  0  0  0  0  0  0  0
   -4.1876    2.3286    0.0000 C   0  0  0  0  0  0  0  0  0  0  0  0
   -4.1876    3.1536    0.0000 C   0  0  0  0  0  0  0  0  0  0  0  0
   -2.8579    4.8139    0.0000 N   0  0  0  0  0  0  0  0  0  0  0  0
   -2.3152    4.1926    0.0000 N   0  0  0  0  0  0  0  0  0  0  0  0
   -3.6166    4.4897    0.0000 C   0  0  0  0  0  0  0  0  0  0  0  0
   -4.9722    2.0737    0.0000 C   0  0  0  0  0  0  0  0  0  0  0  0
   -5.4572    2.7411    0.0000 C   0  0  0  0  0  0  0  0  0  0  0  0
   -4.9722    3.4086    0.0000 S   0  0  0  0  0  0  0  0  0  0  0  0
   -1.1428    2.0267    0.0000 C   0  0  0  0  0  0  0  0  0  0  0  0
   -1.5553    2.7411    0.0000 C   0  0  0  0  0  0  0  0  0  0  0  0
   -1.5553    1.3122    0.0000 O   0  0  0  0  0  0  0  0  0  0  0  0
   -0.3178    2.0267    0.0000 N   0  0  0  0  0  0  0  0  0  0  0  0
   -4.3310    4.9022    0.0000 C   0  0  0  0  0  0  0  0  0  0  0  0
   -5.2272    1.2891    0.0000 C   0  0  0  0  0  0  0  0  0  0  0  0
   -6.2822    2.7411    0.0000 C   0  0  0  0  0  0  0  0  0  0  0  0
    0.0947    1.3122    0.0000 C   0  0  0  0  0  0  0  0  0  0  0  0
    0.9197    1.3122    0.0000 C   0  0  0  0  0  0  0  0  0  0  0  0
    1.3322    0.5977    0.0000 C   0  0  0  0  0  0  0  0  0  0  0  0
    2.1572    0.5977    0.0000 C   0  0  0  0  0  0  0  0  0  0  0  0
    2.5697   -0.1168    0.0000 C   0  0  0  0  0  0  0  0  0  0  0  0
    3.3947   -0.1168    0.0000 C   0  0  0  0  0  0  0  0  0  0  0  0
    3.8072    0.5977    0.0000 O   0  0  0  0  0  0  0  0  0  0  0  0
    3.8072   -0.8312    0.0000 N   0  0  0  0  0  0  0  0  0  0  0  0
    4.6322   -0.8312    0.0000 C   0  0  0  0  0  0  0  0  0  0  0  0
    4.4926   -3.5877    0.0000 C   0  0  0  0  0  0  0  0  0  0  0  0
    3.7390   -3.2522    0.0000 N   0  0  0  0  0  0  0  0  0  0  0  0
    3.8252   -2.4317    0.0000 C   0  0  0  0  0  0  0  0  0  0  0  0
    4.6322   -2.2602    0.0000 C   0  0  0  0  0  0  0  0  0  0  0  0
    5.0447   -1.5457    0.0000 C   0  0  0  0  0  0  0  0  0  0  0  0
    5.8697   -1.5457    0.0000 C   0  0  0  0  0  0  0  0  0  0  0  0
    6.2822   -2.2602    0.0000 C   0  0  0  0  0  0  0  0  0  0  0  0
    5.8697   -2.9746    0.0000 C   0  0  0  0  0  0  0  0  0  0  0  0
    5.0447   -2.9746    0.0000 C   0  0  0  0  0  0  0  0  0  0  0  0
    3.2121   -1.8797    0.0000 O   0  0  0  0  0  0  0  0  0  0  0  0
    4.6642   -4.3947    0.0000 O   0  0  0  0  0  0  0  0  0  0  0  0
    2.3100   -4.9022    0.0000 N   0  0  0  0  0  0  0  0  0  0  0  0
    3.0245   -4.4897    0.0000 C   0  0  0  0  0  0  0  0  0  0  0  0
    3.0245   -3.6647    0.0000 C   0  0  0  0  0  0  0  0  0  0  0  0
    2.3100   -3.2522    0.0000 C   0  0  0  0  0  0  0  0  0  0  0  0
    1.5955   -3.6647    0.0000 C   0  0  0  0  0  0  0  0  0  0  0  0
    1.5955   -4.4897    0.0000 C   0  0  0  0  0  0  0  0  0  0  0  0
    0.8811   -4.9022    0.0000 O   0  0  0  0  0  0  0  0  0  0  0  0
    3.7390   -4.9022    0.0000 O   0  0  0  0  0  0  0  0  0  0  0  0
   -3.7262    1.0099    0.0000 C   0  0  0  0  0  0  0  0  0  0  0  0
   -3.1214    0.4488    0.0000 C   0  0  0  0  0  0  0  0  0  0  0  0
   -3.3050   -0.3555    0.0000 C   0  0  0  0  0  0  0  0  0  0  0  0
   -4.0933   -0.5987    0.0000 C   0  0  0  0  0  0  0  0  0  0  0  0
   -4.6981   -0.0376    0.0000 C   0  0  0  0  0  0  0  0  0  0  0  0
   -4.5145    0.7668    0.0000 C   0  0  0  0  0  0  0  0  0  0  0  0
   -4.2769   -1.4030    0.0000 Cl  0  0  0  0  0  0  0  0  0  0  0  0
  1  2  1  0      
  2  3  1  0      
  3  4  1  0      
  4  5  2  0      
  5  6  1  0      
  6  7  2  0      
  1  7  1  0      
  8  9  1  0      
  8 10  2  0      
 10  1  1  0      
  9  2  2  0      
 11 12  2  0      
 12 13  1  0      
 11  6  1  0      
 13  7  1  0      
 14 15  1  0      
 14 16  2  0      
 14 17  1  0      
  3 15  1  6      
 10 18  1  0      
 11 19  1  0      
 12 20  1  0      
 21 22  1  0      
 22 23  1  0      
 23 24  1  0      
 24 25  1  0      
 25 26  1  0      
 26 27  2  0      
 30 31  1  0      
 31 32  1  0      
 32 33  1  0      
 33 34  1  0      
 34 35  2  0      
 35 36  1  0      
 36 37  2  0      
 37 38  1  0      
 30 38  1  0      
 33 38  2  0      
 32 39  2  0      
 30 40  2  0      
 41 42  1  0      
 42 43  1  0      
 43 44  1  0      
 44 45  1  0      
 45 46  1  0      
 41 46  1  0      
 46 47  2  0      
 42 48  2  0      
 31 43  1  0      
 29 34  1  0      
 28 29  1  0      
 26 28  1  0      
 17 21  1  0      
 49 50  1  0      
 50 51  2  0      
 51 52  1  0      
 52 53  2  0      
 53 54  1  0      
 49 54  2  0      
 52 55  1  0      
  5 49  1  0      
M  END

>  <RackCode>
HYCPK72334

>  <Cat. No.>
HY-112718

>  <Product Name>
PROTAC BET Degrader-10

>  <ROW>
G

>  <COLUMN>
15

>  <CAS No.>
1957234-97-7

>  <MWt>
783.29

>  <Target>
Epigenetic Reader Domain; PROTACs

>  <Saltdate>
Free Base

>  <Smiles>
O=C(NCCCCCC(NCC1=CC=CC(C(N2C(CC3)C(NC3=O)=O)=O)=C1C2=O)=O)C[C@H]4C5=NN=C(C)N5C6=C(C(C)=C(C)S6)C(C7=CC=C(Cl)C=C7)=N4

>  <Solvent>
DMSO Solution

>  <Batch No.>
79151

>  <Quantity>
10mM  * 50uL

>  <Pathway>
Epigenetics; PROTAC

>  <Synonyms>


>  <Formula>
C39H39ClN8O6S

>  <Research_Area>
Cancer

>  <Clinical_Information>
No Development Reported

>  <SUPPLIER>
MedChemExpress

$$$$
Untitled Document
  ChemDraw01262216012D

 21 23  0  0  0  0  0  0  0  0999 V2000
    1.4906    0.8379    0.0000 O   0  0  0  0  0  0  0  0  0  0  0  0
    1.4906    0.1848    0.0000 C   0  0  0  0  0  0  0  0  0  0  0  0
    0.7761   -0.2277    0.0000 N   0  0  0  0  0  0  0  0  0  0  0  0
    0.0616    0.1848    0.0000 C   0  0  0  0  0  0  0  0  0  0  0  0
   -0.6529   -0.2277    0.0000 C   0  0  0  0  0  0  0  0  0  0  0  0
   -1.3673    0.1848    0.0000 C   0  0  0  0  0  0  0  0  0  0  0  0
   -1.3673    1.0098    0.0000 C   0  0  0  0  0  0  0  0  0  0  0  0
   -0.6529    1.4223    0.0000 C   0  0  0  0  0  0  0  0  0  0  0  0
    0.0616    1.0098    0.0000 C   0  0  0  0  0  0  0  0  0  0  0  0
    0.7761    1.4652    0.0000 N   0  0  0  0  0  0  0  0  0  0  0  0
   -2.0818   -0.2277    0.0000 C   0  0  0  0  0  0  0  0  0  0  0  0
   -2.0818   -1.0527    0.0000 C   0  0  0  0  0  0  0  0  0  0  0  0
   -2.7963   -1.4652    0.0000 C   0  0  0  0  0  0  0  0  0  0  0  0
   -3.5107   -1.0527    0.0000 N   0  0  0  0  0  0  0  0  0  0  0  0
   -3.5107   -0.2277    0.0000 C   0  0  0  0  0  0  0  0  0  0  0  0
   -2.7963    0.1848    0.0000 C   0  0  0  0  0  0  0  0  0  0  0  0
    2.2050   -0.2277    0.0000 N   0  0  0  0  0  0  0  0  0  0  0  0
    2.9587    0.1078    0.0000 C   0  0  0  0  0  0  0  0  0  0  0  0
    3.5107   -0.5053    0.0000 C   0  0  0  0  0  0  0  0  0  0  0  0
    3.0982   -1.2197    0.0000 C   0  0  0  0  0  0  0  0  0  0  0  0
    2.2913   -1.0482    0.0000 C   0  0  0  0  0  0  0  0  0  0  0  0
  1  2  2  0      
  2  3  1  0      
  3  4  1  0      
  4  5  1  0      
  5  6  2  0      
  6  7  1  0      
  7  8  2  0      
  8  9  1  0      
  4  9  2  0      
  9 10  1  0      
  6 11  1  0      
 11 12  1  0      
 12 13  2  0      
 13 14  1  0      
 14 15  2  0      
 15 16  1  0      
 11 16  2  0      
  2 17  1  0      
 17 18  1  0      
 18 19  1  0      
 19 20  1  0      
 20 21  1  0      
 17 21  1  0      
M  END

>  <RackCode>
HYCPK72334

>  <Cat. No.>
HY-117709

>  <Product Name>
BRD6688

>  <ROW>
H

>  <COLUMN>
15

>  <CAS No.>
1404562-17-9

>  <MWt>
282.34

>  <Target>
HDAC

>  <Saltdate>


>  <Smiles>
O=C(N1CCCC1)NC2=C(N)C=CC(C3=CC=NC=C3)=C2

>  <Solvent>
DMSO Solution

>  <Batch No.>
365234

>  <Quantity>
10mM  * 50uL

>  <Pathway>
Cell Cycle/DNA Damage; Epigenetics

>  <Synonyms>


>  <Formula>
C16H18N4O

>  <Research_Area>
Neurological Disease

>  <Clinical_Information>
No Development Reported

>  <SUPPLIER>
MedChemExpress

$$$$
Untitled Document
  ChemDraw11271813452D

 42 46  0  0  0  0  0  0  0  0999 V2000
    1.4289   -2.6813    0.0000 O   0  0  0  0  0  0  0  0  0  0  0  0
    1.4289   -1.8563    0.0000 C   0  0  0  0  0  0  0  0  0  0  0  0
    2.1434   -1.4438    0.0000 C   0  0  0  0  0  0  0  0  0  0  0  0
    2.1434   -0.6188    0.0000 C   0  0  0  0  0  0  0  0  0  0  0  0
    2.8579   -0.2063    0.0000 C   0  0  0  0  0  0  0  0  0  0  0  0
    2.8579    0.6187    0.0000 C   0  0  0  0  0  0  0  0  0  0  0  0
    3.5724    1.0312    0.0000 C   0  0  0  0  0  0  0  0  0  0  0  0
    4.2868    0.6187    0.0000 C   0  0  0  0  0  0  0  0  0  0  0  0
    5.0013    1.0312    0.0000 O   0  0  0  0  0  0  0  0  0  0  0  0
    5.7158    0.6187    0.0000 C   0  0  0  0  0  0  0  0  0  0  0  0
    4.2868   -0.2063    0.0000 C   0  0  0  0  0  0  0  0  0  0  0  0
    3.5724   -0.6188    0.0000 C   0  0  0  0  0  0  0  0  0  0  0  0
    1.4289   -0.2063    0.0000 O   0  0  0  0  0  0  0  0  0  0  0  0
    0.7145   -0.6188    0.0000 C   0  0  0  0  0  0  0  0  0  0  0  0
    0.0000   -0.2063    0.0000 C   0  0  0  0  0  0  0  0  0  0  0  0
   -0.7145   -0.6188    0.0000 C   0  0  0  0  0  0  0  0  0  0  0  0
   -1.4289   -0.2063    0.0000 O   0  0  0  0  0  0  0  0  0  0  0  0
   -2.1434   -0.6188    0.0000 C   0  0  0  0  0  0  0  0  0  0  0  0
   -2.8579   -0.2063    0.0000 C   0  0  0  0  0  0  0  0  0  0  0  0
   -3.5724   -0.6188    0.0000 C   0  0  0  0  0  0  0  0  0  0  0  0
   -3.5724   -1.4438    0.0000 C   0  0  0  0  0  0  0  0  0  0  0  0
   -2.8579   -1.8563    0.0000 C   0  0  0  0  0  0  0  0  0  0  0  0
   -2.8579   -2.6813    0.0000 C   0  0  0  0  0  0  0  0  0  0  0  0
   -3.5724   -3.0938    0.0000 O   0  0  0  0  0  0  0  0  0  0  0  0
   -2.1434   -1.4438    0.0000 O   0  0  0  0  0  0  0  0  0  0  0  0
   -4.2868   -1.8563    0.0000 O   0  0  0  0  0  0  0  0  0  0  0  0
   -4.2868   -0.2063    0.0000 O   0  0  0  0  0  0  0  0  0  0  0  0
   -2.8579    0.6187    0.0000 O   0  0  0  0  0  0  0  0  0  0  0  0
   -3.5724    1.0313    0.0000 C   0  0  0  0  0  0  0  0  0  0  0  0
   -3.5724    1.8563    0.0000 C   0  0  0  0  0  0  0  0  0  0  0  0
   -4.2868    2.2688    0.0000 C   0  0  0  0  0  0  0  0  0  0  0  0
   -5.0013    1.8563    0.0000 C   0  0  0  0  0  0  0  0  0  0  0  0
   -5.0013    1.0312    0.0000 C   0  0  0  0  0  0  0  0  0  0  0  0
   -5.7158    0.6187    0.0000 C   0  0  0  0  0  0  0  0  0  0  0  0
   -4.2868    0.6187    0.0000 O   0  0  0  0  0  0  0  0  0  0  0  0
   -5.7158    2.2688    0.0000 O   0  0  0  0  0  0  0  0  0  0  0  0
   -4.2868    3.0938    0.0000 O   0  0  0  0  0  0  0  0  0  0  0  0
   -2.8579    2.2688    0.0000 O   0  0  0  0  0  0  0  0  0  0  0  0
   -0.7145   -1.4438    0.0000 C   0  0  0  0  0  0  0  0  0  0  0  0
    0.0000   -1.8563    0.0000 C   0  0  0  0  0  0  0  0  0  0  0  0
    0.0000   -2.6813    0.0000 O   0  0  0  0  0  0  0  0  0  0  0  0
    0.7145   -1.4438    0.0000 C   0  0  0  0  0  0  0  0  0  0  0  0
  1  2  2  0      
  2  3  1  0      
  3  4  2  0      
  4  5  1  0      
  5  6  2  0      
  6  7  1  0      
  7  8  2  0      
  8  9  1  0      
  9 10  1  0      
  8 11  1  0      
 11 12  2  0      
  5 12  1  0      
  4 13  1  0      
 13 14  1  0      
 14 15  2  0      
 15 16  1  0      
 16 17  1  0      
 18 17  1  6      
 18 19  1  0      
 19 20  1  0      
 20 21  1  0      
 21 22  1  0      
 22 23  1  6      
 23 24  1  0      
 22 25  1  0      
 18 25  1  0      
 21 26  1  1      
 20 27  1  6      
 19 28  1  1      
 29 28  1  6      
 29 30  1  0      
 30 31  1  0      
 31 32  1  0      
 32 33  1  0      
 33 34  1  1      
 33 35  1  0      
 29 35  1  0      
 32 36  1  6      
 31 37  1  1      
 30 38  1  1      
 16 39  2  0      
 39 40  1  0      
 40 41  1  0      
 40 42  2  0      
  2 42  1  0      
 14 42  1  0      
M  END

>  <RackCode>
HYCPK72334

>  <Cat. No.>
HY-119678

>  <Product Name>
Fortunellin

>  <ROW>
I

>  <COLUMN>
15

>  <CAS No.>
20633-93-6

>  <MWt>
592.55

>  <Target>
AMPK; Keap1-Nrf2

>  <Saltdate>


>  <Smiles>
O=C1C=C(OC2=CC(O[C@H]3[C@H](O[C@H]4[C@H](O)[C@H](O)[C@@H](O)[C@@H](O4)C)[C@@H](O)[C@H](O)[C@H](O3)CO)=CC(O)=C12)C5=CC=C(C=C5)OC

>  <Solvent>
DMSO Solution

>  <Batch No.>
342942

>  <Quantity>
10mM  * 50uL

>  <Pathway>
Epigenetics; NF-¦ÊB; PI3K/Akt/mTOR

>  <Synonyms>


>  <Formula>
C28H32O14

>  <Research_Area>
Metabolic Disease; Cardiovascular Disease

>  <Clinical_Information>
No Development Reported

>  <SUPPLIER>
MedChemExpress

$$$$
Untitled Document
  ChemDraw09032015172D

 34 39  0  0  0  0  0  0  0  0999 V2000
   -2.7518    1.9115    0.0000 C   0  0  0  0  0  0  0  0  0  0  0  0
   -2.7518    1.0865    0.0000 N   0  0  0  0  0  0  0  0  0  0  0  0
   -2.0375    0.6740    0.0000 C   0  0  0  0  0  0  0  0  0  0  0  0
   -1.3230    1.0865    0.0000 C   0  0  0  0  0  0  0  0  0  0  0  0
   -1.3230    1.9115    0.0000 C   0  0  0  0  0  0  0  0  0  0  0  0
   -2.0375    2.3240    0.0000 C   0  0  0  0  0  0  0  0  0  0  0  0
   -0.6085    0.6740    0.0000 C   0  0  0  0  0  0  0  0  0  0  0  0
   -3.4663    2.3240    0.0000 C   0  0  0  0  0  0  0  0  0  0  0  0
   -3.8788    3.0384    0.0000 C   0  0  0  0  0  0  0  0  0  0  0  0
   -4.2913    2.3240    0.0000 C   0  0  0  0  0  0  0  0  0  0  0  0
   -0.6085   -0.1510    0.0000 C   0  0  0  0  0  0  0  0  0  0  0  0
    0.1060   -0.5635    0.0000 N   0  0  0  0  0  0  0  0  0  0  0  0
    0.8204   -0.1510    0.0000 C   0  0  0  0  0  0  0  0  0  0  0  0
    0.8204    0.6740    0.0000 N   0  0  0  0  0  0  0  0  0  0  0  0
    0.1060    1.0865    0.0000 C   0  0  0  0  0  0  0  0  0  0  0  0
   -1.2216   -0.7030    0.0000 C   0  0  0  0  0  0  0  0  0  0  0  0
   -0.8861   -1.4567    0.0000 N   0  0  0  0  0  0  0  0  0  0  0  0
   -0.0656   -1.3705    0.0000 C   0  0  0  0  0  0  0  0  0  0  0  0
   -2.0286   -0.5315    0.0000 S   0  0  0  0  0  0  0  0  0  0  0  0
   -2.4411   -1.2460    0.0000 C   0  0  0  0  0  0  0  0  0  0  0  0
   -1.8151    0.2654    0.0000 O   0  0  0  0  0  0  0  0  0  0  0  0
   -2.7430   -0.1190    0.0000 O   0  0  0  0  0  0  0  0  0  0  0  0
    1.5349   -0.5635    0.0000 N   0  0  0  0  0  0  0  0  0  0  0  0
    1.5349   -1.3885    0.0000 C   0  0  0  0  0  0  0  0  0  0  0  0
    2.2494   -1.8010    0.0000 C   0  0  0  0  0  0  0  0  0  0  0  0
    2.2494   -2.6259    0.0000 C   0  0  0  0  0  0  0  0  0  0  0  0
    2.9637   -3.0384    0.0000 C   0  0  0  0  0  0  0  0  0  0  0  0
    3.6782   -2.6259    0.0000 C   0  0  0  0  0  0  0  0  0  0  0  0
    3.6782   -1.8010    0.0000 C   0  0  0  0  0  0  0  0  0  0  0  0
    2.9637   -1.3885    0.0000 C   0  0  0  0  0  0  0  0  0  0  0  0
    4.2913   -1.2490    0.0000 O   0  0  0  0  0  0  0  0  0  0  0  0
    3.9557   -0.4953    0.0000 C   0  0  0  0  0  0  0  0  0  0  0  0
    3.1353   -0.5815    0.0000 C   0  0  0  0  0  0  0  0  0  0  0  0
    1.5349   -3.0384    0.0000 F   0  0  0  0  0  0  0  0  0  0  0  0
  1  2  1  0      
  2  3  2  0      
  3  4  1  0      
  4  5  2  0      
  5  6  1  0      
  6  1  2  0      
  4  7  1  0      
  1  8  1  0      
  8  9  1  0      
  9 10  1  0      
 10  8  1  0      
  7 11  1  0      
 11 12  1  0      
 12 13  1  0      
 13 14  2  0      
 14 15  1  0      
 15  7  2  0      
 11 16  2  0      
 16 17  1  0      
 17 18  2  0      
 18 12  1  0      
 16 19  1  0      
 19 20  1  0      
 19 21  2  0      
 19 22  2  0      
 13 23  1  0      
 23 24  1  0      
 24 25  1  0      
 25 26  2  0      
 26 27  1  0      
 27 28  2  0      
 28 29  1  0      
 29 30  2  0      
 30 25  1  0      
 29 31  1  0      
 31 32  1  0      
 32 33  1  0      
 33 30  1  0      
 26 34  1  0      
M  END

>  <RackCode>
HYCPK72334

>  <Cat. No.>
HY-136977

>  <Product Name>
EEDi-5285

>  <ROW>
J

>  <COLUMN>
15

>  <CAS No.>
2488952-40-3

>  <MWt>
479.53

>  <Target>
Histone Methyltransferase

>  <Saltdate>


>  <Smiles>
CS(C1=C2C(C3=CC=C(C4CC4)N=C3)=CN=C(NCC5=C(F)C=CC6=C5CCO6)N2C=N1)(=O)=O

>  <Solvent>
DMSO Solution

>  <Batch No.>
241577

>  <Quantity>
10mM  * 50uL

>  <Pathway>
Epigenetics

>  <Synonyms>


>  <Formula>
C24H22FN5O3S

>  <Research_Area>
Cancer

>  <Clinical_Information>
No Development Reported

>  <SUPPLIER>
MedChemExpress

$$$$
Untitled Document
  ChemDraw12101516432D

 27 29  0  0  0  0  0  0  0  0999 V2000
   -3.5724    0.4125    0.0000 C   0  0  0  0  0  0  0  0  0  0  0  0
   -3.5724   -0.4125    0.0000 C   0  0  0  0  0  0  0  0  0  0  0  0
   -2.8579   -0.8250    0.0000 N   0  0  0  0  0  0  0  0  0  0  0  0
   -2.1434   -0.4125    0.0000 C   0  0  0  0  0  0  0  0  0  0  0  0
   -2.1434    0.4125    0.0000 C   0  0  0  0  0  0  0  0  0  0  0  0
   -2.8579    0.8250    0.0000 C   0  0  0  0  0  0  0  0  0  0  0  0
   -1.4289   -0.8250    0.0000 C   0  0  0  0  0  0  0  0  0  0  0  0
   -0.7145   -0.4125    0.0000 C   0  0  0  0  0  0  0  0  0  0  0  0
   -0.7145    0.4125    0.0000 C   0  0  0  0  0  0  0  0  0  0  0  0
   -1.4289    0.8250    0.0000 C   0  0  0  0  0  0  0  0  0  0  0  0
    0.0000    0.8250    0.0000 N   0  0  0  0  0  0  0  0  0  0  0  0
    0.7145    0.4125    0.0000 S   0  0  0  0  0  0  0  0  0  0  0  0
    1.4289    0.0000    0.0000 C   0  0  0  0  0  0  0  0  0  0  0  0
    1.4289   -0.8250    0.0000 C   0  0  0  0  0  0  0  0  0  0  0  0
    2.1434   -1.2375    0.0000 C   0  0  0  0  0  0  0  0  0  0  0  0
    2.8579   -0.8250    0.0000 C   0  0  0  0  0  0  0  0  0  0  0  0
    2.8579   -0.0000    0.0000 C   0  0  0  0  0  0  0  0  0  0  0  0
    2.1434    0.4125    0.0000 C   0  0  0  0  0  0  0  0  0  0  0  0
    2.1434    1.2375    0.0000 O   0  0  0  0  0  0  0  0  0  0  0  0
    1.4289    1.6500    0.0000 C   0  0  0  0  0  0  0  0  0  0  0  0
   -4.2868    0.8250    0.0000 C   0  0  0  0  0  0  0  0  0  0  0  0
   -4.2868   -0.8250    0.0000 O   0  0  0  0  0  0  0  0  0  0  0  0
   -2.8579   -1.6500    0.0000 C   0  0  0  0  0  0  0  0  0  0  0  0
    0.3020   -0.3020    0.0000 O   0  0  0  0  0  0  0  0  0  0  0  0
    1.1270    1.1270    0.0000 O   0  0  0  0  0  0  0  0  0  0  0  0
    3.5724   -1.2375    0.0000 C   0  0  0  0  0  0  0  0  0  0  0  0
    4.2868   -1.6500    0.0000 N   0  0  0  0  0  0  0  0  0  0  0  0
  1  2  1  0      
  2  3  1  0      
  3  4  1  0      
  4  5  2  0      
  5  6  1  0      
  6  1  2  0      
  4  7  1  0      
  7  8  2  0      
  8  9  1  0      
  9 10  2  0      
 10  5  1  0      
  9 11  1  0      
 11 12  1  0      
 12 13  1  0      
 13 14  2  0      
 14 15  1  0      
 15 16  2  0      
 16 17  1  0      
 17 18  2  0      
 18 13  1  0      
 18 19  1  0      
 19 20  1  0      
 16 26  1  0      
  1 21  1  0      
  2 22  2  0      
  3 23  1  0      
 12 24  2  0      
 12 25  2  0      
 26 27  3  0      
M  END

>  <RackCode>
HYCPK72334

>  <Cat. No.>
HY-19537

>  <Product Name>
NI-57

>  <ROW>
K

>  <COLUMN>
15

>  <CAS No.>
1883548-89-7

>  <MWt>
383.42

>  <Target>
Epigenetic Reader Domain

>  <Saltdate>
Free Base

>  <Smiles>
COC1=CC(C#N)=CC=C1S(NC2=CC3=C(C=C2)N(C)C(C(C)=C3)=O)(=O)=O

>  <Solvent>
DMSO Solution

>  <Batch No.>
31184

>  <Quantity>
10mM  * 50uL

>  <Pathway>
Epigenetics

>  <Synonyms>


>  <Formula>
C19H17N3O4S

>  <Research_Area>
Cancer; Inflammation/Immunology

>  <Clinical_Information>
No Development Reported

>  <SUPPLIER>
MedChemExpress

$$$$
Untitled Document
  ChemDraw11111315082D

 25 27  0  0  0  0  0  0  0  0999 V2000
    1.2505    0.9326    0.0000 C   0  0  0  0  0  0  0  0  0  0  0  0
    1.6529    0.6878    0.0000 C   0  0  0  0  0  0  0  0  0  0  0  0
    1.6422    0.2169    0.0000 C   0  0  0  0  0  0  0  0  0  0  0  0
    1.2289   -0.0093    0.0000 C   0  0  0  0  0  0  0  0  0  0  0  0
    0.8265    0.2355    0.0000 C   0  0  0  0  0  0  0  0  0  0  0  0
    0.8372    0.7064    0.0000 O   0  0  0  0  0  0  0  0  0  0  0  0
    0.4132    0.0093    0.0000 C   0  0  0  0  0  0  0  0  0  0  0  0
    0.4025   -0.4616    0.0000 C   0  0  0  0  0  0  0  0  0  0  0  0
    0.8050   -0.7064    0.0000 C   0  0  0  0  0  0  0  0  0  0  0  0
    1.2182   -0.4803    0.0000 C   0  0  0  0  0  0  0  0  0  0  0  0
    1.2612    1.4035    0.0000 O   0  0  0  0  0  0  0  0  0  0  0  0
    0.7942   -1.1774    0.0000 O   0  0  0  0  0  0  0  0  0  0  0  0
    0.3810   -1.4035    0.0000 C   0  0  0  0  0  0  0  0  0  0  0  0
   -0.0108   -0.6878    0.0000 O   0  0  0  0  0  0  0  0  0  0  0  0
   -0.4132   -0.4430    0.0000 C   0  0  0  0  0  0  0  0  0  0  0  0
   -0.4025    0.0279    0.0000 C   0  0  0  0  0  0  0  0  0  0  0  0
    0.0108    0.2541    0.0000 O   0  0  0  0  0  0  0  0  0  0  0  0
   -0.8050    0.2727    0.0000 C   0  0  0  0  0  0  0  0  0  0  0  0
   -0.7942    0.7437    0.0000 O   0  0  0  0  0  0  0  0  0  0  0  0
   -1.2182    0.0466    0.0000 C   0  0  0  0  0  0  0  0  0  0  0  0
   -1.6207    0.2914    0.0000 O   0  0  0  0  0  0  0  0  0  0  0  0
   -1.2289   -0.4244    0.0000 C   0  0  0  0  0  0  0  0  0  0  0  0
   -0.8265   -0.6692    0.0000 O   0  0  0  0  0  0  0  0  0  0  0  0
   -1.6422   -0.6506    0.0000 C   0  0  0  0  0  0  0  0  0  0  0  0
   -1.6529   -1.1215    0.0000 O   0  0  0  0  0  0  0  0  0  0  0  0
  1  2  1  0      
  2  3  2  0      
  3  4  1  0      
  4  5  1  0      
  5  6  1  0      
  1  6  1  0      
  7  8  1  0      
  8  9  2  0      
  9 10  1  0      
  4 10  2  0      
  5  7  2  0      
  1 11  2  0      
 12 13  1  0      
  9 12  1  0      
 15 16  1  0      
 16 17  1  1      
 16 18  1  0      
 18 19  1  6      
 18 20  1  0      
 20 21  1  1      
 20 22  1  0      
 22 23  1  0      
 22 24  1  6      
 24 25  1  0      
 15 23  1  0      
 15 14  1  6      
  8 14  1  0      
M  END

>  <RackCode>
HYCPK72334

>  <Cat. No.>
HY-N0341

>  <Product Name>
Scopolin

>  <ROW>
L

>  <COLUMN>
15

>  <CAS No.>
531-44-2

>  <MWt>
354.31

>  <Target>
Sirtuin

>  <Saltdate>


>  <Smiles>
O=C1C=CC2=CC(OC)=C(O[C@H]3[C@@H]([C@H]([C@@H]([C@@H](CO)O3)O)O)O)C=C2O1

>  <Solvent>
DMSO Solution

>  <Batch No.>
310724

>  <Quantity>
10mM  * 50uL

>  <Pathway>
Cell Cycle/DNA Damage; Epigenetics

>  <Synonyms>


>  <Formula>
C16H18O9

>  <Research_Area>
Metabolic Disease

>  <Clinical_Information>
No Development Reported

>  <SUPPLIER>
MedChemExpress

$$$$
Untitled Document
  ChemDraw09032015252D

 26 29  0  0  0  0  0  0  0  0999 V2000
    0.0553   -0.6187    0.0000 N   0  0  0  0  0  0  0  0  0  0  0  0
    0.7697   -0.2062    0.0000 C   0  0  0  0  0  0  0  0  0  0  0  0
    0.7697    0.6187    0.0000 N   0  0  0  0  0  0  0  0  0  0  0  0
    0.0553    1.0313    0.0000 C   0  0  0  0  0  0  0  0  0  0  0  0
   -0.6592    0.6187    0.0000 C   0  0  0  0  0  0  0  0  0  0  0  0
   -1.3737    1.0313    0.0000 C   0  0  0  0  0  0  0  0  0  0  0  0
   -2.0881    0.6187    0.0000 C   0  0  0  0  0  0  0  0  0  0  0  0
   -2.0881   -0.2062    0.0000 C   0  0  0  0  0  0  0  0  0  0  0  0
   -1.3737   -0.6187    0.0000 C   0  0  0  0  0  0  0  0  0  0  0  0
   -0.6592   -0.2062    0.0000 C   0  0  0  0  0  0  0  0  0  0  0  0
    0.0553    1.8563    0.0000 O   0  0  0  0  0  0  0  0  0  0  0  0
    1.4842   -0.6187    0.0000 C   0  0  0  0  0  0  0  0  0  0  0  0
    2.1987   -0.2062    0.0000 S   0  0  0  0  0  0  0  0  0  0  0  0
    2.9131   -0.6187    0.0000 C   0  0  0  0  0  0  0  0  0  0  0  0
    3.6276   -0.2062    0.0000 C   0  0  0  0  0  0  0  0  0  0  0  0
    4.3421   -0.6187    0.0000 C   0  0  0  0  0  0  0  0  0  0  0  0
    4.3421   -1.4437    0.0000 C   0  0  0  0  0  0  0  0  0  0  0  0
    3.6276   -1.8563    0.0000 C   0  0  0  0  0  0  0  0  0  0  0  0
    2.9131   -1.4437    0.0000 C   0  0  0  0  0  0  0  0  0  0  0  0
    5.0566   -1.8563    0.0000 O   0  0  0  0  0  0  0  0  0  0  0  0
   -1.3737    1.8563    0.0000 F   0  0  0  0  0  0  0  0  0  0  0  0
   -2.8026   -0.6187    0.0000 O   0  0  0  0  0  0  0  0  0  0  0  0
   -3.5171   -0.2062    0.0000 C   0  0  0  0  0  0  0  0  0  0  0  0
   -4.2316   -0.6187    0.0000 C   0  0  0  0  0  0  0  0  0  0  0  0
   -4.6441   -1.3332    0.0000 C   0  0  0  0  0  0  0  0  0  0  0  0
   -5.0566   -0.6187    0.0000 C   0  0  0  0  0  0  0  0  0  0  0  0
  1  2  2  0      
  2  3  1  0      
  3  4  1  0      
  4  5  1  0      
  5  6  1  0      
  6  7  2  0      
  7  8  1  0      
  8  9  2  0      
  9 10  1  0      
  1 10  1  0      
  5 10  2  0      
  4 11  2  0      
 14 15  1  0      
 15 16  1  0      
 16 17  1  0      
 17 18  1  0      
 18 19  1  0      
 14 19  1  0      
 17 20  1  6      
 14 13  1  1      
 12 13  1  0      
  2 12  1  0      
  6 21  1  0      
 22 23  1  0      
 24 25  1  0      
 25 26  1  0      
 24 26  1  0      
 23 24  1  0      
  8 22  1  0      
M  END

>  <RackCode>
HYCPK72334

>  <Cat. No.>
HY-136979

>  <Product Name>
RBN012759

>  <ROW>
M

>  <COLUMN>
15

>  <CAS No.>
2360851-29-0

>  <MWt>
378.46

>  <Target>
PARP

>  <Saltdate>


>  <Smiles>
O=C1NC(CS[C@H]2CC[C@H](O)CC2)=NC3=C1C(F)=CC(OCC4CC4)=C3

>  <Solvent>
DMSO Solution

>  <Batch No.>
80686

>  <Quantity>
10mM  * 50uL

>  <Pathway>
Cell Cycle/DNA Damage; Epigenetics

>  <Synonyms>


>  <Formula>
C19H23FN2O3S

>  <Research_Area>
Cancer; Inflammation/Immunology

>  <Clinical_Information>
No Development Reported

>  <SUPPLIER>
MedChemExpress

$$$$
Untitled Document
  ChemDraw09282111092D

 45 50  0  0  0  0  0  0  0  0999 V2000
    5.0617    2.7217    0.0000 C   0  0  0  0  0  0  0  0  0  0  0  0
    4.2367    2.7217    0.0000 N   0  0  0  0  0  0  0  0  0  0  0  0
    5.4742    2.0072    0.0000 O   0  0  0  0  0  0  0  0  0  0  0  0
    5.4742    3.4362    0.0000 O   0  0  0  0  0  0  0  0  0  0  0  0
    2.5867    1.2928    0.0000 N   0  0  0  0  0  0  0  0  0  0  0  0
    2.9992    2.0072    0.0000 C   0  0  0  0  0  0  0  0  0  0  0  0
    3.8242    2.0072    0.0000 C   0  0  0  0  0  0  0  0  0  0  0  0
    4.2367    1.2928    0.0000 C   0  0  0  0  0  0  0  0  0  0  0  0
    3.8242    0.5783    0.0000 C   0  0  0  0  0  0  0  0  0  0  0  0
    2.9992    0.5783    0.0000 C   0  0  0  0  0  0  0  0  0  0  0  0
    1.7617    1.2928    0.0000 C   0  0  0  0  0  0  0  0  0  0  0  0
    0.1117   -0.1362    0.0000 C   0  0  0  0  0  0  0  0  0  0  0  0
    0.5242    0.5783    0.0000 C   0  0  0  0  0  0  0  0  0  0  0  0
    1.3492    0.5783    0.0000 C   0  0  0  0  0  0  0  0  0  0  0  0
    1.7617   -0.1362    0.0000 C   0  0  0  0  0  0  0  0  0  0  0  0
    1.3492   -0.8506    0.0000 C   0  0  0  0  0  0  0  0  0  0  0  0
    0.5242   -0.8506    0.0000 N   0  0  0  0  0  0  0  0  0  0  0  0
   -0.7133   -0.1362    0.0000 C   0  0  0  0  0  0  0  0  0  0  0  0
   -1.1258    0.5783    0.0000 O   0  0  0  0  0  0  0  0  0  0  0  0
   -1.1258   -0.8506    0.0000 N   0  0  0  0  0  0  0  0  0  0  0  0
   -1.9508   -0.8506    0.0000 C   0  0  0  0  0  0  0  0  0  0  0  0
   -2.3633   -1.5651    0.0000 C   0  0  0  0  0  0  0  0  0  0  0  0
   -3.1883   -1.5651    0.0000 C   0  0  0  0  0  0  0  0  0  0  0  0
   -3.6008   -0.8506    0.0000 C   0  0  0  0  0  0  0  0  0  0  0  0
   -3.1883   -0.1362    0.0000 C   0  0  0  0  0  0  0  0  0  0  0  0
   -2.3633   -0.1362    0.0000 C   0  0  0  0  0  0  0  0  0  0  0  0
   -7.1242   -0.4381    0.0000 C   0  0  0  0  0  0  0  0  0  0  0  0
   -6.4098   -0.0256    0.0000 N   0  0  0  0  0  0  0  0  0  0  0  0
   -5.6953   -0.4381    0.0000 C   0  0  0  0  0  0  0  0  0  0  0  0
   -5.6953   -1.2631    0.0000 C   0  0  0  0  0  0  0  0  0  0  0  0
   -6.4098   -1.6756    0.0000 C   0  0  0  0  0  0  0  0  0  0  0  0
   -7.1242   -1.2631    0.0000 N   0  0  0  0  0  0  0  0  0  0  0  0
   -4.9107   -0.1832    0.0000 N   0  0  0  0  0  0  0  0  0  0  0  0
   -4.9107   -1.5181    0.0000 C   0  0  0  0  0  0  0  0  0  0  0  0
   -4.4258   -0.8506    0.0000 C   0  0  0  0  0  0  0  0  0  0  0  0
   -6.4098   -2.5006    0.0000 N   0  0  0  0  0  0  0  0  0  0  0  0
   -5.6953   -2.9131    0.0000 C   0  0  0  0  0  0  0  0  0  0  0  0
   -5.6953   -3.7381    0.0000 C   0  0  0  0  0  0  0  0  0  0  0  0
   -6.4098   -4.1506    0.0000 O   0  0  0  0  0  0  0  0  0  0  0  0
   -7.1242   -3.7381    0.0000 C   0  0  0  0  0  0  0  0  0  0  0  0
   -7.1242   -2.9131    0.0000 C   0  0  0  0  0  0  0  0  0  0  0  0
    6.2992    3.4362    0.0000 C   0  0  0  0  0  0  0  0  0  0  0  0
    6.7117    4.1506    0.0000 C   0  0  0  0  0  0  0  0  0  0  0  0
    7.1242    3.4362    0.0000 C   0  0  0  0  0  0  0  0  0  0  0  0
    6.7117    2.7217    0.0000 C   0  0  0  0  0  0  0  0  0  0  0  0
  1  2  1  0      
  1  3  2  0      
  1  4  1  0      
  5  6  1  0      
  6  7  1  0      
  7  8  1  0      
  8  9  1  0      
  9 10  1  0      
  5 10  1  0      
 12 13  1  0      
 13 14  2  0      
 14 15  1  0      
 15 16  2  0      
 16 17  1  0      
 12 17  2  0      
 18 19  2  0      
 21 22  1  0      
 22 23  2  0      
 23 24  1  0      
 24 25  2  0      
 25 26  1  0      
 21 26  2  0      
 27 28  1  0      
 28 29  2  0      
 29 30  1  0      
 30 31  2  0      
 31 32  1  0      
 27 32  2  0      
 34 35  2  0      
 33 35  1  0      
 33 29  1  0      
 34 30  1  0      
 36 37  1  0      
 37 38  1  0      
 38 39  1  0      
 39 40  1  0      
 40 41  1  0      
 36 41  1  0      
 31 36  1  0      
 24 35  1  0      
 20 21  1  0      
 18 20  1  0      
 12 18  1  0      
 11 14  1  0      
  5 11  1  0      
  7  2  1  6      
 42 43  1  0      
 42 44  1  0      
 42 45  1  0      
  4 42  1  0      
M  END

>  <RackCode>
HYCPK72334

>  <Cat. No.>
HY-128798

>  <Product Name>
Menin-MLL inhibitor 20

>  <ROW>
N

>  <COLUMN>
15

>  <CAS No.>
2448173-47-3

>  <MWt>
612.72

>  <Target>
Epigenetic Reader Domain

>  <Saltdate>


>  <Smiles>
O=C(OC(C)(C)C)N[C@H]1CN(CC2=CC(C(NC3=CC=C(C4=CC5=C(N6CCOCC6)N=CN=C5N4)C=C3)=O)=NC=C2)CCC1

>  <Solvent>
DMSO Solution

>  <Batch No.>
121022

>  <Quantity>
10mM  * 50uL

>  <Pathway>
Epigenetics

>  <Synonyms>


>  <Formula>
C33H40N8O4

>  <Research_Area>
Cancer

>  <Clinical_Information>
No Development Reported

>  <SUPPLIER>
MedChemExpress

$$$$
Untitled Document
  ChemDraw09211608472D

 45 48  0  0  0  0  0  0  0  0999 V2000
    1.5378    0.5748    0.0000 O   0  0  0  0  0  0  0  0  0  0  0  0
   -0.6175   -2.4757    0.0000 C   0  0  0  0  0  0  0  0  0  0  0  0
   -1.1025   -3.1431    0.0000 N   0  0  0  0  0  0  0  0  0  0  0  0
   -1.8871   -2.8882    0.0000 C   0  0  0  0  0  0  0  0  0  0  0  0
   -1.8871   -2.0632    0.0000 C   0  0  0  0  0  0  0  0  0  0  0  0
   -1.1025   -1.8082    0.0000 N   0  0  0  0  0  0  0  0  0  0  0  0
   -2.6016   -3.3007    0.0000 C   0  0  0  0  0  0  0  0  0  0  0  0
   -3.3160   -2.8882    0.0000 C   0  0  0  0  0  0  0  0  0  0  0  0
   -3.3160   -2.0632    0.0000 C   0  0  0  0  0  0  0  0  0  0  0  0
   -2.6016   -1.6507    0.0000 C   0  0  0  0  0  0  0  0  0  0  0  0
   -4.0305   -3.3007    0.0000 C   0  0  0  0  0  0  0  0  0  0  0  0
   -4.0305   -4.1257    0.0000 O   0  0  0  0  0  0  0  0  0  0  0  0
   -4.7450   -2.8882    0.0000 O   0  0  0  0  0  0  0  0  0  0  0  0
    0.2075   -2.4757    0.0000 N   0  0  0  0  0  0  0  0  0  0  0  0
    0.6200   -1.7612    0.0000 C   0  0  0  0  0  0  0  0  0  0  0  0
    1.4450   -1.7612    0.0000 C   0  0  0  0  0  0  0  0  0  0  0  0
    1.8575   -1.0467    0.0000 C   0  0  0  0  0  0  0  0  0  0  0  0
    2.6825   -1.0467    0.0000 C   0  0  0  0  0  0  0  0  0  0  0  0
    3.0950   -1.7612    0.0000 C   0  0  0  0  0  0  0  0  0  0  0  0
    2.6825   -2.4757    0.0000 C   0  0  0  0  0  0  0  0  0  0  0  0
    1.8575   -2.4757    0.0000 C   0  0  0  0  0  0  0  0  0  0  0  0
    0.2075   -1.0467    0.0000 O   0  0  0  0  0  0  0  0  0  0  0  0
    3.9200   -1.7612    0.0000 C   0  0  0  0  0  0  0  0  0  0  0  0
    4.3325   -2.4757    0.0000 F   0  0  0  0  0  0  0  0  0  0  0  0
    4.7450   -1.7612    0.0000 F   0  0  0  0  0  0  0  0  0  0  0  0
    4.3325   -1.0467    0.0000 F   0  0  0  0  0  0  0  0  0  0  0  0
   -0.8475   -1.0236    0.0000 C   0  0  0  0  0  0  0  0  0  0  0  0
   -1.3996   -0.4105    0.0000 C   0  0  0  0  0  0  0  0  0  0  0  0
   -1.1446    0.3741    0.0000 C   0  0  0  0  0  0  0  0  0  0  0  0
   -0.3376    0.5456    0.0000 C   0  0  0  0  0  0  0  0  0  0  0  0
   -0.0827    1.3302    0.0000 C   0  0  0  0  0  0  0  0  0  0  0  0
   -0.6347    1.9433    0.0000 C   0  0  0  0  0  0  0  0  0  0  0  0
   -1.4417    1.7718    0.0000 C   0  0  0  0  0  0  0  0  0  0  0  0
   -1.6966    0.9872    0.0000 C   0  0  0  0  0  0  0  0  0  0  0  0
   -0.3798    2.7280    0.0000 O   0  0  0  0  0  0  0  0  0  0  0  0
   -0.9318    3.3411    0.0000 C   0  0  0  0  0  0  0  0  0  0  0  0
   -1.7388    3.1695    0.0000 C   0  0  0  0  0  0  0  0  0  0  0  0
   -2.2908    3.7826    0.0000 C   0  0  0  0  0  0  0  0  0  0  0  0
   -3.0978    3.6111    0.0000 C   0  0  0  0  0  0  0  0  0  0  0  0
   -3.3527    2.8265    0.0000 C   0  0  0  0  0  0  0  0  0  0  0  0
   -2.8007    2.2134    0.0000 C   0  0  0  0  0  0  0  0  0  0  0  0
   -1.9937    2.3849    0.0000 C   0  0  0  0  0  0  0  0  0  0  0  0
   -0.6769    4.1257    0.0000 O   0  0  0  0  0  0  0  0  0  0  0  0
   -4.1597    2.6550    0.0000 O   0  0  0  0  0  0  0  0  0  0  0  0
   -4.7118    3.2680    0.0000 C   0  0  0  0  0  0  0  0  0  0  0  0
  2  3  2  0      
  3  4  1  0      
  4  5  1  0      
  5  6  1  0      
  2  6  1  0      
  7  8  1  0      
  8  9  2  0      
  9 10  1  0      
  5 10  2  0      
  4  7  2  0      
 11 12  2  0      
 11 13  1  0      
  8 11  1  0      
 15 16  1  0      
 16 17  1  0      
 17 18  2  0      
 18 19  1  0      
 19 20  2  0      
 20 21  1  0      
 16 21  2  0      
 15 22  2  0      
 23 24  1  0      
 23 25  1  0      
 23 26  1  0      
 19 23  1  0      
 14 15  1  0      
  2 14  1  0      
 27 28  1  0      
 29 30  1  0      
 30 31  2  0      
 31 32  1  0      
 32 33  2  0      
 33 34  1  0      
 29 34  2  0      
 36 37  1  0      
 37 38  1  0      
 38 39  2  0      
 39 40  1  0      
 40 41  2  0      
 41 42  1  0      
 37 42  2  0      
 36 43  2  0      
 44 45  1  0      
 40 44  1  0      
 35 36  1  0      
 32 35  1  0      
 28 29  1  0      
  6 27  1  0      
M  END

>  <RackCode>
HYCPK72334

>  <Cat. No.>
HY-12991A

>  <Product Name>
BIX-01338 (hydrate)

>  <ROW>
O

>  <COLUMN>
15

>  <CAS No.>
1228184-65-3

>  <MWt>
621.56

>  <Target>
Histone Methyltransferase

>  <Saltdate>
Free Acid

>  <Smiles>
O=C(C1=CC=C2C(N=C(NC(C3=CC=C(C(F)(F)F)C=C3)=O)N2CCC4=CC=C(OC(C5=CC=C(OC)C=C5)=O)C=C4)=C1)O.O

>  <Solvent>
DMSO Solution

>  <Batch No.>
230955

>  <Quantity>
10mM  * 50uL

>  <Pathway>
Epigenetics

>  <Synonyms>


>  <Formula>
C32H26F3N3O7

>  <Research_Area>
Cancer

>  <Clinical_Information>
No Development Reported

>  <SUPPLIER>
MedChemExpress

$$$$
Untitled Document
  ChemDraw09292214202D

 47 49  0  0  0  0  0  0  0  0999 V2000
   -0.6391   -2.2010    0.0000 N   0  0  0  0  0  0  0  0  0  0  0  0
   -0.2266   -2.9154    0.0000 N   0  0  0  0  0  0  0  0  0  0  0  0
    0.5804   -2.7438    0.0000 N   0  0  0  0  0  0  0  0  0  0  0  0
    0.6667   -1.9235    0.0000 C   0  0  0  0  0  0  0  0  0  0  0  0
   -0.0870   -1.5879    0.0000 C   0  0  0  0  0  0  0  0  0  0  0  0
    1.3811   -1.5110    0.0000 C   0  0  0  0  0  0  0  0  0  0  0  0
    1.3811   -0.6860    0.0000 O   0  0  0  0  0  0  0  0  0  0  0  0
    2.0956   -1.9235    0.0000 N   0  0  0  0  0  0  0  0  0  0  0  0
    2.8100   -1.5110    0.0000 C   0  0  0  0  0  0  0  0  0  0  0  0
    3.5244   -1.9235    0.0000 C   0  0  0  0  0  0  0  0  0  0  0  0
    4.2389   -1.5110    0.0000 C   0  0  0  0  0  0  0  0  0  0  0  0
    4.9534   -1.9235    0.0000 N   0  0  0  0  0  0  0  0  0  0  0  0
    5.6679   -1.5110    0.0000 C   0  0  0  0  0  0  0  0  0  0  0  0
    6.3823   -1.9235    0.0000 C   0  0  0  0  0  0  0  0  0  0  0  0
    6.3823   -2.7484    0.0000 O   0  0  0  0  0  0  0  0  0  0  0  0
    5.6679   -3.1609    0.0000 C   0  0  0  0  0  0  0  0  0  0  0  0
    4.9534   -2.7484    0.0000 C   0  0  0  0  0  0  0  0  0  0  0  0
   -1.4595   -2.1148    0.0000 C   0  0  0  0  0  0  0  0  0  0  0  0
   -1.7951   -1.3611    0.0000 C   0  0  0  0  0  0  0  0  0  0  0  0
   -2.6156   -1.2749    0.0000 C   0  0  0  0  0  0  0  0  0  0  0  0
   -3.1004   -1.9423    0.0000 C   0  0  0  0  0  0  0  0  0  0  0  0
   -2.7648   -2.6960    0.0000 C   0  0  0  0  0  0  0  0  0  0  0  0
   -1.9445   -2.7821    0.0000 C   0  0  0  0  0  0  0  0  0  0  0  0
   -3.9209   -1.8561    0.0000 N   0  0  0  0  0  0  0  0  0  0  0  0
   -4.4058   -2.5235    0.0000 C   0  0  0  0  0  0  0  0  0  0  0  0
   -5.2263   -2.4373    0.0000 C   0  0  0  0  0  0  0  0  0  0  0  0
   -5.5618   -1.6836    0.0000 N   0  0  0  0  0  0  0  0  0  0  0  0
   -5.0769   -1.0161    0.0000 C   0  0  0  0  0  0  0  0  0  0  0  0
   -4.2564   -1.1024    0.0000 C   0  0  0  0  0  0  0  0  0  0  0  0
   -6.3823   -1.5973    0.0000 C   0  0  0  0  0  0  0  0  0  0  0  0
   -2.9510   -0.5212    0.0000 N   0  0  0  0  0  0  0  0  0  0  0  0
   -2.4662    0.1463    0.0000 C   0  0  0  0  0  0  0  0  0  0  0  0
   -2.8017    0.8999    0.0000 C   0  0  0  0  0  0  0  0  0  0  0  0
   -2.3168    1.5674    0.0000 C   0  0  0  0  0  0  0  0  0  0  0  0
   -2.6524    2.3211    0.0000 C   0  0  0  0  0  0  0  0  0  0  0  0
   -3.4728    2.4073    0.0000 C   0  0  0  0  0  0  0  0  0  0  0  0
   -3.9577    1.7398    0.0000 C   0  0  0  0  0  0  0  0  0  0  0  0
   -3.6222    0.9862    0.0000 C   0  0  0  0  0  0  0  0  0  0  0  0
   -1.6457    0.0600    0.0000 O   0  0  0  0  0  0  0  0  0  0  0  0
   -2.1675    2.9884    0.0000 C   0  0  0  0  0  0  0  0  0  0  0  0
   -3.8083    3.1609    0.0000 F   0  0  0  0  0  0  0  0  0  0  0  0
   -1.4964    1.4811    0.0000 Cl  0  0  0  0  0  0  0  0  0  0  0  0
   -4.7782    1.8261    0.0000 N   0  0  0  0  0  0  0  0  0  0  0  0
    2.0659    2.3732    0.0000 H   0  0  0  0  0  0  0  0  0  0  0  0
    2.8908    2.3732    0.0000 Cl  0  0  0  0  0  0  0  0  0  0  0  0
    2.0659    1.2990    0.0000 H   0  0  0  0  0  0  0  0  0  0  0  0
    2.8908    1.2990    0.0000 Cl  0  0  0  0  0  0  0  0  0  0  0  0
  1  2  1  0      
  2  3  2  0      
  3  4  1  0      
  4  5  2  0      
  1  5  1  0      
  6  7  2  0      
  6  8  1  0      
  4  6  1  0      
  9 10  1  0      
 10 11  1  0      
 12 13  1  0      
 13 14  1  0      
 14 15  1  0      
 15 16  1  0      
 16 17  1  0      
 12 17  1  0      
 11 12  1  0      
  8  9  1  0      
 18 19  1  0      
 19 20  2  0      
 20 21  1  0      
 21 22  2  0      
 22 23  1  0      
 18 23  2  0      
 24 25  1  0      
 25 26  1  0      
 26 27  1  0      
 27 28  1  0      
 28 29  1  0      
 24 29  1  0      
 27 30  1  0      
 21 24  1  0      
 32 33  1  0      
 33 34  1  0      
 34 35  2  0      
 35 36  1  0      
 36 37  2  0      
 37 38  1  0      
 33 38  2  0      
 32 39  2  0      
 35 40  1  0      
 36 41  1  0      
 34 42  1  0      
 37 43  1  0      
 31 32  1  0      
 20 31  1  0      
  1 18  1  0      
 44 45  1  0      
 46 47  1  0      
M  END

>  <RackCode>
HYCPK72334

>  <Cat. No.>
HY-132233A

>  <Product Name>
DDO-2093 (dihydrochloride)

>  <ROW>
P

>  <COLUMN>
15

>  <CAS No.>


>  <MWt>
687.04

>  <Target>
Histone Methyltransferase

>  <Saltdate>
Hydrochloride

>  <Smiles>
O=C(C1=CN(C2=CC=C(N3CCN(C)CC3)C(NC(C4=CC(N)=C(F)C(C)=C4Cl)=O)=C2)N=N1)NCCCN5CCOCC5.[H]Cl.[H]Cl

>  <Solvent>
DMSO Solution

>  <Batch No.>
229930

>  <Quantity>
10mM  * 50uL

>  <Pathway>
Epigenetics

>  <Synonyms>


>  <Formula>
C29H39Cl3FN9O3

>  <Research_Area>
Cancer

>  <Clinical_Information>
No Development Reported

>  <SUPPLIER>
MedChemExpress

$$$$
Untitled Document
  ChemDraw12171815482D

 30 30  0  0  0  0  0  0  0  0999 V2000
    0.7145   -0.6187    0.0000 C   0  0  0  0  0  0  0  0  0  0  0  0
    0.7145   -1.4437    0.0000 C   0  0  0  0  0  0  0  0  0  0  0  0
    0.0000   -1.8563    0.0000 C   0  0  0  0  0  0  0  0  0  0  0  0
    0.0000   -2.6813    0.0000 C   0  0  0  0  0  0  0  0  0  0  0  0
    0.7145   -3.0937    0.0000 C   0  0  0  0  0  0  0  0  0  0  0  0
    1.4289   -2.6813    0.0000 C   0  0  0  0  0  0  0  0  0  0  0  0
    1.4289   -1.8563    0.0000 C   0  0  0  0  0  0  0  0  0  0  0  0
    0.0000   -0.2063    0.0000 O   0  0  0  0  0  0  0  0  0  0  0  0
    1.4289   -0.2063    0.0000 N   0  0  0  0  0  0  0  0  0  0  0  0
    2.1434   -1.4437    0.0000 O   0  0  0  0  0  0  0  0  0  0  0  0
    2.8579   -1.8563    0.0000 C   0  0  0  0  0  0  0  0  0  0  0  0
    3.5724   -1.4437    0.0000 C   0  0  0  0  0  0  0  0  0  0  0  0
   -0.7145   -1.4437    0.0000 O   0  0  0  0  0  0  0  0  0  0  0  0
   -1.4289   -1.8563    0.0000 C   0  0  0  0  0  0  0  0  0  0  0  0
   -2.1434   -1.4437    0.0000 C   0  0  0  0  0  0  0  0  0  0  0  0
   -2.8579   -1.8563    0.0000 N   0  0  0  0  0  0  0  0  0  0  0  0
   -3.5724   -1.4437    0.0000 C   0  0  0  0  0  0  0  0  0  0  0  0
   -2.8579   -2.6813    0.0000 C   0  0  0  0  0  0  0  0  0  0  0  0
    1.4289    0.6187    0.0000 C   0  0  0  0  0  0  0  0  0  0  0  0
    2.1434    1.0313    0.0000 C   0  0  0  0  0  0  0  0  0  0  0  0
    2.1434    1.8563    0.0000 C   0  0  0  0  0  0  0  0  0  0  0  0
    1.4289    2.2687    0.0000 C   0  0  0  0  0  0  0  0  0  0  0  0
    0.7145    1.8563    0.0000 C   0  0  0  0  0  0  0  0  0  0  0  0
    0.7145    1.0313    0.0000 C   0  0  0  0  0  0  0  0  0  0  0  0
    2.8579    2.2687    0.0000 C   0  0  0  0  0  0  0  0  0  0  0  0
    2.8579    3.0937    0.0000 F   0  0  0  0  0  0  0  0  0  0  0  0
    3.5724    2.6813    0.0000 F   0  0  0  0  0  0  0  0  0  0  0  0
    3.5724    1.8563    0.0000 F   0  0  0  0  0  0  0  0  0  0  0  0
    1.4289    3.0937    0.0000 Cl  0  0  0  0  0  0  0  0  0  0  0  0
   -1.4060    0.3651    0.0000 Cl  0  0  0  0  0  0  0  0  0  0  0  0
  1  2  1  0      
  2  3  1  0      
  3  4  2  0      
  4  5  1  0      
  5  6  2  0      
  6  7  1  0      
  2  7  2  0      
  1  8  2  0      
  1  9  1  0      
 11 12  1  0      
 10 11  1  0      
  7 10  1  0      
 14 15  1  0      
 13 14  1  0      
 16 17  1  0      
 16 18  1  0      
 15 16  1  0      
  3 13  1  0      
 19 20  1  0      
 20 21  2  0      
 21 22  1  0      
 22 23  2  0      
 23 24  1  0      
 19 24  2  0      
 25 26  1  0      
 25 27  1  0      
 25 28  1  0      
 21 25  1  0      
 22 29  1  0      
  9 19  1  0      
M  END

>  <RackCode>
HYCPK72334

>  <Cat. No.>
HY-16531A

>  <Product Name>
YF-2 (hydrochloride)

>  <ROW>
A

>  <COLUMN>
16

>  <CAS No.>
1312005-62-1

>  <MWt>
467.31

>  <Target>
Histone Acetyltransferase

>  <Saltdate>
Hydrochloride

>  <Smiles>
O=C(NC1=CC=C(Cl)C(C(F)(F)F)=C1)C2=C(OCC)C=CC=C2OCCN(C)C.Cl

>  <Solvent>
DMSO Solution

>  <Batch No.>
263138

>  <Quantity>
10mM  * 50uL

>  <Pathway>
Epigenetics

>  <Synonyms>


>  <Formula>
C20H23Cl2F3N2O3

>  <Research_Area>
Cancer; Neurological Disease

>  <Clinical_Information>
No Development Reported

>  <SUPPLIER>
MedChemExpress

$$$$
Untitled Document
  ChemDraw04191812452D

 29 33  0  0  0  0  0  0  0  0999 V2000
   -0.3396    1.4084    0.0000 C   0  0  0  0  0  0  0  0  0  0  0  0
   -0.3396    0.5834    0.0000 C   0  0  0  0  0  0  0  0  0  0  0  0
    0.3749    0.1709    0.0000 C   0  0  0  0  0  0  0  0  0  0  0  0
    1.0894    0.5834    0.0000 C   0  0  0  0  0  0  0  0  0  0  0  0
    1.0894    1.4084    0.0000 C   0  0  0  0  0  0  0  0  0  0  0  0
    0.3749    1.8209    0.0000 C   0  0  0  0  0  0  0  0  0  0  0  0
    1.7344    0.0690    0.0000 N   0  0  0  0  0  0  0  0  0  0  0  0
    2.5387    0.2526    0.0000 C   0  0  0  0  0  0  0  0  0  0  0  0
    2.8967    0.9959    0.0000 C   0  0  0  0  0  0  0  0  0  0  0  0
    2.5387    1.7392    0.0000 C   0  0  0  0  0  0  0  0  0  0  0  0
    1.7344    1.9228    0.0000 N   0  0  0  0  0  0  0  0  0  0  0  0
    3.0531    2.3842    0.0000 O   0  0  0  0  0  0  0  0  0  0  0  0
   -1.0540    1.8209    0.0000 C   0  0  0  0  0  0  0  0  0  0  0  0
   -1.7685    1.4084    0.0000 N   0  0  0  0  0  0  0  0  0  0  0  0
   -1.0540    2.6459    0.0000 O   0  0  0  0  0  0  0  0  0  0  0  0
   -2.4830    1.8209    0.0000 C   0  0  0  0  0  0  0  0  0  0  0  0
   -3.1975    1.4084    0.0000 C   0  0  0  0  0  0  0  0  0  0  0  0
   -3.1975    0.5834    0.0000 C   0  0  0  0  0  0  0  0  0  0  0  0
   -3.6100   -0.1311    0.0000 C   0  0  0  0  0  0  0  0  0  0  0  0
   -2.7850   -0.1311    0.0000 C   0  0  0  0  0  0  0  0  0  0  0  0
    1.5508   -0.7353    0.0000 C   0  0  0  0  0  0  0  0  0  0  0  0
    2.1556   -1.2964    0.0000 N   0  0  0  0  0  0  0  0  0  0  0  0
    0.7625   -0.9785    0.0000 O   0  0  0  0  0  0  0  0  0  0  0  0
    2.0571   -2.1155    0.0000 C   0  0  0  0  0  0  0  0  0  0  0  0
    2.8056   -2.4623    0.0000 C   0  0  0  0  0  0  0  0  0  0  0  0
    3.3668   -1.8576    0.0000 C   0  0  0  0  0  0  0  0  0  0  0  0
    2.9650   -1.1370    0.0000 C   0  0  0  0  0  0  0  0  0  0  0  0
    3.6100   -2.6459    0.0000 C   0  0  0  0  0  0  0  0  0  0  0  0
    3.0531   -0.3924    0.0000 C   0  0  0  0  0  0  0  0  0  0  0  0
  1  2  2  0      
  2  3  1  0      
  3  4  2  0      
  4  5  1  0      
  5  6  2  0      
  6  1  1  0      
  4  7  1  0      
  7  8  1  0      
  8  9  1  0      
  9 10  1  0      
 10 11  1  0      
 11  5  1  0      
 10 12  2  0      
  1 13  1  0      
 13 14  1  0      
 13 15  2  0      
 14 16  1  0      
 16 17  1  0      
 17 18  1  0      
 18 19  1  0      
 19 20  1  0      
 20 18  1  0      
  7 21  1  0      
 21 22  1  0      
 21 23  2  0      
 22 24  1  0      
 24 25  1  0      
 25 26  1  0      
 26 27  1  0      
 27 22  1  0      
 25 28  1  0      
 28 26  1  0      
  8 29  1  6      
M  END

>  <RackCode>
HYCPK72334

>  <Cat. No.>
HY-112080

>  <Product Name>
BAY-6035

>  <ROW>
B

>  <COLUMN>
16

>  <CAS No.>
2247890-13-5

>  <MWt>
396.48

>  <Target>
Histone Methyltransferase

>  <Saltdate>
Free Base

>  <Smiles>
O=C1C[C@H](C)N(C(N2CC(C3)C3C2)=O)C4=CC=C(C(NCCC5CC5)=O)C=C4N1

>  <Solvent>
DMSO Solution

>  <Batch No.>
160358

>  <Quantity>
10mM  * 50uL

>  <Pathway>
Epigenetics

>  <Synonyms>


>  <Formula>
C22H28N4O3

>  <Research_Area>
Cancer

>  <Clinical_Information>
No Development Reported

>  <SUPPLIER>
MedChemExpress

$$$$
Untitled Document
  ChemDraw05101917272D

 31 34  0  0  0  0  0  0  0  0999 V2000
   -5.0874   -0.1221    0.0000 C   0  0  0  0  0  0  0  0  0  0  0  0
   -4.3729    0.2904    0.0000 C   0  0  0  0  0  0  0  0  0  0  0  0
   -3.6584   -0.1221    0.0000 N   0  0  0  0  0  0  0  0  0  0  0  0
   -2.9440    0.2904    0.0000 C   0  0  0  0  0  0  0  0  0  0  0  0
   -2.2295   -0.1221    0.0000 C   0  0  0  0  0  0  0  0  0  0  0  0
   -1.5150    0.2904    0.0000 C   0  0  0  0  0  0  0  0  0  0  0  0
   -0.8006   -0.1221    0.0000 O   0  0  0  0  0  0  0  0  0  0  0  0
   -0.0861    0.2904    0.0000 C   0  0  0  0  0  0  0  0  0  0  0  0
   -0.0861    1.1154    0.0000 C   0  0  0  0  0  0  0  0  0  0  0  0
    0.6284    1.5279    0.0000 C   0  0  0  0  0  0  0  0  0  0  0  0
    1.3428    1.1154    0.0000 C   0  0  0  0  0  0  0  0  0  0  0  0
    2.1275    1.3704    0.0000 N   0  0  0  0  0  0  0  0  0  0  0  0
    2.3824    2.1550    0.0000 C   0  0  0  0  0  0  0  0  0  0  0  0
    2.6124    0.7029    0.0000 C   0  0  0  0  0  0  0  0  0  0  0  0
    3.4374    0.7029    0.0000 N   0  0  0  0  0  0  0  0  0  0  0  0
    3.8499   -0.0116    0.0000 C   0  0  0  0  0  0  0  0  0  0  0  0
    4.6749   -0.0116    0.0000 C   0  0  0  0  0  0  0  0  0  0  0  0
    5.0874   -0.7260    0.0000 C   0  0  0  0  0  0  0  0  0  0  0  0
    4.6749   -1.4405    0.0000 C   0  0  0  0  0  0  0  0  0  0  0  0
    5.0874   -2.1550    0.0000 F   0  0  0  0  0  0  0  0  0  0  0  0
    3.8499   -1.4405    0.0000 C   0  0  0  0  0  0  0  0  0  0  0  0
    3.4374   -0.7260    0.0000 C   0  0  0  0  0  0  0  0  0  0  0  0
    2.6124   -0.7260    0.0000 F   0  0  0  0  0  0  0  0  0  0  0  0
    2.1275    0.0355    0.0000 N   0  0  0  0  0  0  0  0  0  0  0  0
    1.3428    0.2904    0.0000 C   0  0  0  0  0  0  0  0  0  0  0  0
    0.6284   -0.1221    0.0000 C   0  0  0  0  0  0  0  0  0  0  0  0
    0.6284   -0.9471    0.0000 C   0  0  0  0  0  0  0  0  0  0  0  0
   -1.5150    1.1154    0.0000 C   0  0  0  0  0  0  0  0  0  0  0  0
   -2.2295    1.5279    0.0000 C   0  0  0  0  0  0  0  0  0  0  0  0
   -2.9440    1.1154    0.0000 N   0  0  0  0  0  0  0  0  0  0  0  0
   -4.3729    1.1154    0.0000 O   0  0  0  0  0  0  0  0  0  0  0  0
  1  2  1  0      
  2  3  1  0      
  3  4  1  0      
  4  5  2  0      
  5  6  1  0      
  6  7  1  0      
  7  8  1  0      
  8  9  2  0      
  9 10  1  0      
 10 11  2  0      
 11 12  1  0      
 12 13  1  0      
 12 14  1  0      
 14 15  1  0      
 15 16  1  0      
 16 17  2  0      
 17 18  1  0      
 18 19  2  0      
 19 20  1  0      
 19 21  1  0      
 21 22  2  0      
 16 22  1  0      
 22 23  1  0      
 14 24  2  0      
 11 25  1  0      
 24 25  1  0      
 25 26  2  0      
  8 26  1  0      
 26 27  1  0      
  6 28  2  0      
 28 29  1  0      
 29 30  2  0      
  4 30  1  0      
  2 31  2  0      
M  END

>  <RackCode>
HYCPK72334

>  <Cat. No.>
HY-18960

>  <Product Name>
CHZ868

>  <ROW>
C

>  <COLUMN>
16

>  <CAS No.>
1895895-38-1

>  <MWt>
423.42

>  <Target>
JAK

>  <Saltdate>
Free Base

>  <Smiles>
CC(NC1=CC(OC2=CC=C(N(C)C(NC3=CC=C(F)C=C3F)=N4)C4=C2C)=CC=N1)=O

>  <Solvent>
DMSO Solution

>  <Batch No.>
268180

>  <Quantity>
10mM  * 50uL

>  <Pathway>
Epigenetics; JAK/STAT Signaling; Protein Tyrosine Kinase/RTK; Stem Cell/Wnt

>  <Synonyms>


>  <Formula>
C22H19F2N5O2

>  <Research_Area>
Cancer

>  <Clinical_Information>
No Development Reported

>  <SUPPLIER>
MedChemExpress

$$$$
Untitled Document
  ChemDraw10151813332D

 24 27  0  0  0  0  0  0  0  0999 V2000
   -1.9583   -1.1288    0.0000 O   0  0  0  0  0  0  0  0  0  0  0  0
   -1.9583   -0.3038    0.0000 C   0  0  0  0  0  0  0  0  0  0  0  0
   -2.6727    0.1087    0.0000 C   0  0  0  0  0  0  0  0  0  0  0  0
   -2.6727    0.9337    0.0000 C   0  0  0  0  0  0  0  0  0  0  0  0
   -3.3872    1.3462    0.0000 C   0  0  0  0  0  0  0  0  0  0  0  0
   -4.1017    0.9337    0.0000 N   0  0  0  0  0  0  0  0  0  0  0  0
   -4.1017    0.1087    0.0000 C   0  0  0  0  0  0  0  0  0  0  0  0
   -3.3872   -0.3038    0.0000 C   0  0  0  0  0  0  0  0  0  0  0  0
   -1.9583    1.3462    0.0000 N   0  0  0  0  0  0  0  0  0  0  0  0
   -1.2438    0.9337    0.0000 C   0  0  0  0  0  0  0  0  0  0  0  0
   -0.5293    1.3462    0.0000 O   0  0  0  0  0  0  0  0  0  0  0  0
    0.1852    0.9337    0.0000 C   0  0  0  0  0  0  0  0  0  0  0  0
    0.9388    1.2692    0.0000 C   0  0  0  0  0  0  0  0  0  0  0  0
    1.4909    0.6561    0.0000 N   0  0  0  0  0  0  0  0  0  0  0  0
    2.3113    0.7424    0.0000 C   0  0  0  0  0  0  0  0  0  0  0  0
    2.7963    0.0749    0.0000 C   0  0  0  0  0  0  0  0  0  0  0  0
    3.6167    0.1612    0.0000 C   0  0  0  0  0  0  0  0  0  0  0  0
    4.1017   -0.5063    0.0000 C   0  0  0  0  0  0  0  0  0  0  0  0
    3.7661   -1.2599    0.0000 C   0  0  0  0  0  0  0  0  0  0  0  0
    2.9456   -1.3462    0.0000 C   0  0  0  0  0  0  0  0  0  0  0  0
    2.4607   -0.6787    0.0000 C   0  0  0  0  0  0  0  0  0  0  0  0
    1.0784   -0.0583    0.0000 N   0  0  0  0  0  0  0  0  0  0  0  0
    0.2714    0.1132    0.0000 C   0  0  0  0  0  0  0  0  0  0  0  0
   -1.2438    0.1087    0.0000 N   0  0  0  0  0  0  0  0  0  0  0  0
  1  2  2  0      
  2  3  1  0      
  3  4  2  0      
  4  5  1  0      
  5  6  2  0      
  6  7  1  0      
  7  8  2  0      
  3  8  1  0      
  4  9  1  0      
  9 10  1  0      
 10 11  1  0      
 11 12  1  0      
 12 13  2  0      
 13 14  1  0      
 14 15  1  0      
 15 16  1  0      
 16 17  2  0      
 17 18  1  0      
 18 19  2  0      
 19 20  1  0      
 20 21  2  0      
 16 21  1  0      
 14 22  1  0      
 22 23  2  0      
 12 23  1  0      
 10 24  2  0      
  2 24  1  0      
M  END

>  <RackCode>
HYCPK72334

>  <Cat. No.>
HY-116761

>  <Product Name>
GSK467

>  <ROW>
D

>  <COLUMN>
16

>  <CAS No.>
1628332-52-4

>  <MWt>
319.32

>  <Target>
Histone Demethylase

>  <Saltdate>
Free Base

>  <Smiles>
O=C1C2=C(NC(OC3=CN(N=C3)CC4=CC=CC=C4)=N1)C=NC=C2

>  <Solvent>
DMSO Solution

>  <Batch No.>
41618

>  <Quantity>
10mM  * 50uL

>  <Pathway>
Epigenetics

>  <Synonyms>


>  <Formula>
C17H13N5O2

>  <Research_Area>
Cancer

>  <Clinical_Information>
No Development Reported

>  <SUPPLIER>
MedChemExpress

$$$$
Untitled Document
  ChemDraw10121816082D

 21 22  0  0  0  0  0  0  0  0999 V2000
   -3.2151   -0.8250    0.0000 O   0  0  0  0  0  0  0  0  0  0  0  0
   -2.5006   -0.4125    0.0000 C   0  0  0  0  0  0  0  0  0  0  0  0
   -2.5006    0.4125    0.0000 N   0  0  0  0  0  0  0  0  0  0  0  0
   -3.2151    0.8250    0.0000 C   0  0  0  0  0  0  0  0  0  0  0  0
   -1.7862    0.8250    0.0000 C   0  0  0  0  0  0  0  0  0  0  0  0
   -1.0717    0.4125    0.0000 C   0  0  0  0  0  0  0  0  0  0  0  0
   -0.3572    0.8250    0.0000 C   0  0  0  0  0  0  0  0  0  0  0  0
    0.3572    0.4125    0.0000 C   0  0  0  0  0  0  0  0  0  0  0  0
    1.0717    0.8250    0.0000 S   0  0  0  0  0  0  0  0  0  0  0  0
    1.7862    0.4125    0.0000 C   0  0  0  0  0  0  0  0  0  0  0  0
    2.5006    0.8250    0.0000 N   0  0  0  0  0  0  0  0  0  0  0  0
    3.2151    0.4125    0.0000 C   0  0  0  0  0  0  0  0  0  0  0  0
    3.2151   -0.4125    0.0000 C   0  0  0  0  0  0  0  0  0  0  0  0
    2.5006   -0.8250    0.0000 C   0  0  0  0  0  0  0  0  0  0  0  0
    1.7862   -0.4125    0.0000 C   0  0  0  0  0  0  0  0  0  0  0  0
   -0.3572    1.6500    0.0000 O   0  0  0  0  0  0  0  0  0  0  0  0
   -1.0717   -0.4125    0.0000 C   0  0  0  0  0  0  0  0  0  0  0  0
   -0.3572   -0.8250    0.0000 N   0  0  0  0  0  0  0  0  0  0  0  0
   -1.7862   -0.8250    0.0000 N   0  0  0  0  0  0  0  0  0  0  0  0
   -1.7862   -1.6500    0.0000 C   0  0  0  0  0  0  0  0  0  0  0  0
   -1.7862    1.6500    0.0000 O   0  0  0  0  0  0  0  0  0  0  0  0
  1  2  2  0      
  2  3  1  0      
  3  4  1  0      
  3  5  1  0      
  5  6  1  0      
  6  7  1  0      
  7  8  1  0      
  8  9  1  0      
  9 10  1  0      
 10 11  2  0      
 11 12  1  0      
 12 13  2  0      
 13 14  1  0      
 14 15  2  0      
 10 15  1  0      
  7 16  2  0      
  6 17  2  0      
 17 18  1  0      
 17 19  1  0      
  2 19  1  0      
 19 20  1  0      
  5 21  2  0      
M  END

>  <RackCode>
HYCPK72334

>  <Cat. No.>
HY-118543

>  <Product Name>
TM6089

>  <ROW>
E

>  <COLUMN>
16

>  <CAS No.>
863421-32-3

>  <MWt>
306.34

>  <Target>
HIF/HIF Prolyl-Hydroxylase

>  <Saltdate>
Free Base

>  <Smiles>
O=C1N(C(C(C(CSC2=NC=CC=C2)=O)=C(N1C)N)=O)C

>  <Solvent>
DMSO Solution

>  <Batch No.>
145979

>  <Quantity>
10mM  * 50uL

>  <Pathway>
Metabolic Enzyme/Protease

>  <Synonyms>


>  <Formula>
C13H14N4O3S

>  <Research_Area>
Cardiovascular Disease

>  <Clinical_Information>
No Development Reported

>  <SUPPLIER>
MedChemExpress

$$$$
Untitled Document
  ChemDraw12181808562D

 31 35  0  0  0  0  0  0  0  0999 V2000
    4.4995   -0.4125    0.0000 C   0  0  0  0  0  0  0  0  0  0  0  0
    3.6745   -0.4125    0.0000 C   0  0  0  0  0  0  0  0  0  0  0  0
    3.2620   -1.1270    0.0000 C   0  0  0  0  0  0  0  0  0  0  0  0
    2.4370   -1.1270    0.0000 C   0  0  0  0  0  0  0  0  0  0  0  0
    2.0245   -0.4125    0.0000 C   0  0  0  0  0  0  0  0  0  0  0  0
    2.4370    0.3020    0.0000 C   0  0  0  0  0  0  0  0  0  0  0  0
    3.2620    0.3020    0.0000 C   0  0  0  0  0  0  0  0  0  0  0  0
    4.9120   -1.1270    0.0000 O   0  0  0  0  0  0  0  0  0  0  0  0
    4.9120    0.3020    0.0000 O   0  0  0  0  0  0  0  0  0  0  0  0
    3.6745   -1.8414    0.0000 C   0  0  0  0  0  0  0  0  0  0  0  0
    2.0245    1.0164    0.0000 O   0  0  0  0  0  0  0  0  0  0  0  0
    1.1995    1.0164    0.0000 C   0  0  0  0  0  0  0  0  0  0  0  0
    0.7145    0.3490    0.0000 N   0  0  0  0  0  0  0  0  0  0  0  0
   -0.0701    0.6039    0.0000 C   0  0  0  0  0  0  0  0  0  0  0  0
   -0.0701    1.4289    0.0000 C   0  0  0  0  0  0  0  0  0  0  0  0
    0.7145    1.6839    0.0000 N   0  0  0  0  0  0  0  0  0  0  0  0
   -0.7845    0.1914    0.0000 C   0  0  0  0  0  0  0  0  0  0  0  0
   -1.4990    0.6039    0.0000 C   0  0  0  0  0  0  0  0  0  0  0  0
   -1.4990    1.4289    0.0000 C   0  0  0  0  0  0  0  0  0  0  0  0
   -0.7845    1.8414    0.0000 C   0  0  0  0  0  0  0  0  0  0  0  0
   -4.4271   -0.8885    0.0000 N   0  0  0  0  0  0  0  0  0  0  0  0
   -4.9120   -0.2211    0.0000 C   0  0  0  0  0  0  0  0  0  0  0  0
   -4.4271    0.4464    0.0000 C   0  0  0  0  0  0  0  0  0  0  0  0
   -3.6424    0.1914    0.0000 C   0  0  0  0  0  0  0  0  0  0  0  0
   -2.9280    0.6039    0.0000 C   0  0  0  0  0  0  0  0  0  0  0  0
   -2.2135    0.1914    0.0000 C   0  0  0  0  0  0  0  0  0  0  0  0
   -2.2135   -0.6336    0.0000 C   0  0  0  0  0  0  0  0  0  0  0  0
   -2.9280   -1.0461    0.0000 C   0  0  0  0  0  0  0  0  0  0  0  0
   -3.6424   -0.6336    0.0000 C   0  0  0  0  0  0  0  0  0  0  0  0
   -4.6820   -1.6731    0.0000 C   0  0  0  0  0  0  0  0  0  0  0  0
   -2.2135    1.8414    0.0000 Cl  0  0  0  0  0  0  0  0  0  0  0  0
  1  2  1  0      
  2  3  1  0      
  3  4  2  0      
  4  5  1  0      
  5  6  2  0      
  6  7  1  0      
  2  7  2  0      
  1  8  2  0      
  1  9  1  0      
  3 10  1  0      
 12 13  1  0      
 13 14  1  0      
 14 15  1  0      
 15 16  1  0      
 12 16  2  0      
 17 18  1  0      
 18 19  2  0      
 19 20  1  0      
 15 20  2  0      
 14 17  2  0      
 21 22  1  0      
 22 23  2  0      
 23 24  1  0      
 24 25  1  0      
 25 26  2  0      
 26 27  1  0      
 27 28  2  0      
 28 29  1  0      
 21 29  1  0      
 24 29  2  0      
 21 30  1  0      
 18 26  1  0      
 19 31  1  0      
 11 12  1  0      
  6 11  1  0      
M  END

>  <RackCode>
HYCPK72334

>  <Cat. No.>
HY-112769

>  <Product Name>
EX229

>  <ROW>
F

>  <COLUMN>
16

>  <CAS No.>
1219739-36-2

>  <MWt>
431.87

>  <Target>
AMPK

>  <Saltdate>


>  <Smiles>
O=C(O)C1=CC(OC2=NC3=CC(Cl)=C(C4=CC5=C(N(C)C=C5)C=C4)C=C3N2)=CC=C1C

>  <Solvent>
DMSO Solution

>  <Batch No.>
112014

>  <Quantity>
10mM  * 50uL

>  <Pathway>
Epigenetics; PI3K/Akt/mTOR

>  <Synonyms>


>  <Formula>
C24H18ClN3O3

>  <Research_Area>
Metabolic Disease

>  <Clinical_Information>
No Development Reported

>  <SUPPLIER>
MedChemExpress

$$$$
Untitled Document
  ChemDraw01071914352D

 19 20  0  0  0  0  0  0  0  0999 V2000
    2.8579    1.2375    0.0000 O   0  0  0  0  0  0  0  0  0  0  0  0
    2.8579    0.4125    0.0000 C   0  0  0  0  0  0  0  0  0  0  0  0
    3.5724   -0.0000    0.0000 N   0  0  0  0  0  0  0  0  0  0  0  0
    2.1434   -0.0000    0.0000 C   0  0  0  0  0  0  0  0  0  0  0  0
    2.1434   -0.8250    0.0000 C   0  0  0  0  0  0  0  0  0  0  0  0
    1.4289   -1.2375    0.0000 C   0  0  0  0  0  0  0  0  0  0  0  0
    0.7145   -0.8250    0.0000 C   0  0  0  0  0  0  0  0  0  0  0  0
    0.0000   -1.2375    0.0000 O   0  0  0  0  0  0  0  0  0  0  0  0
   -0.7145   -0.8250    0.0000 C   0  0  0  0  0  0  0  0  0  0  0  0
   -1.4289   -1.2375    0.0000 C   0  0  0  0  0  0  0  0  0  0  0  0
   -2.1434   -0.8250    0.0000 C   0  0  0  0  0  0  0  0  0  0  0  0
   -2.1434   -0.0000    0.0000 C   0  0  0  0  0  0  0  0  0  0  0  0
   -2.8579    0.4125    0.0000 C   0  0  0  0  0  0  0  0  0  0  0  0
   -3.5724   -0.0000    0.0000 N   0  0  0  0  0  0  0  0  0  0  0  0
   -2.8579    1.2375    0.0000 O   0  0  0  0  0  0  0  0  0  0  0  0
   -1.4289    0.4125    0.0000 C   0  0  0  0  0  0  0  0  0  0  0  0
   -0.7145   -0.0000    0.0000 C   0  0  0  0  0  0  0  0  0  0  0  0
    0.7145   -0.0000    0.0000 C   0  0  0  0  0  0  0  0  0  0  0  0
    1.4289    0.4125    0.0000 C   0  0  0  0  0  0  0  0  0  0  0  0
  1  2  2  0      
  2  3  1  0      
  2  4  1  0      
  4  5  2  0      
  5  6  1  0      
  6  7  2  0      
  7  8  1  0      
  8  9  1  0      
  9 10  2  0      
 10 11  1  0      
 11 12  2  0      
 12 13  1  0      
 13 14  1  0      
 13 15  2  0      
 12 16  1  0      
 16 17  2  0      
  9 17  1  0      
  7 18  1  0      
 18 19  2  0      
  4 19  1  0      
M  END

>  <RackCode>
HYCPK72334

>  <Cat. No.>
HY-123512

>  <Product Name>
OUL35

>  <ROW>
G

>  <COLUMN>
16

>  <CAS No.>
6336-34-1

>  <MWt>
256.26

>  <Target>
PARP

>  <Saltdate>


>  <Smiles>
O=C(C1=CC=C(C=C1)OC2=CC=C(C=C2)C(N)=O)N

>  <Solvent>
DMSO Solution

>  <Batch No.>
102116

>  <Quantity>
10mM  * 50uL

>  <Pathway>
Cell Cycle/DNA Damage; Epigenetics

>  <Synonyms>
NSC39047

>  <Formula>
C14H12N2O3

>  <Research_Area>
Cancer

>  <Clinical_Information>
No Development Reported

>  <SUPPLIER>
MedChemExpress

$$$$
Untitled Document
  ChemDraw12251709262D

 23 22  0  0  0  0  0  0  0  0999 V2000
   -1.8857    2.9522    0.0000 C   0  0  0  0  0  0  0  0  0  0  0  0
   -1.6722    2.1553    0.0000 C   0  0  0  0  0  0  0  0  0  0  0  0
   -0.8753    1.9418    0.0000 C   0  0  0  0  0  0  0  0  0  0  0  0
   -2.2853    1.6033    0.0000 O   0  0  0  0  0  0  0  0  0  0  0  0
   -2.1138    0.7963    0.0000 C   0  0  0  0  0  0  0  0  0  0  0  0
   -2.7269    0.2443    0.0000 C   0  0  0  0  0  0  0  0  0  0  0  0
   -2.5553   -0.5627    0.0000 C   0  0  0  0  0  0  0  0  0  0  0  0
   -1.7707   -0.8176    0.0000 C   0  0  0  0  0  0  0  0  0  0  0  0
   -1.5992   -1.6246    0.0000 C   0  0  0  0  0  0  0  0  0  0  0  0
   -2.1512   -2.2377    0.0000 C   0  0  0  0  0  0  0  0  0  0  0  0
   -1.7387   -2.9522    0.0000 N   0  0  0  0  0  0  0  0  0  0  0  0
   -0.9317   -2.7807    0.0000 C   0  0  0  0  0  0  0  0  0  0  0  0
   -0.8455   -1.9602    0.0000 C   0  0  0  0  0  0  0  0  0  0  0  0
   -0.1310   -1.5477    0.0000 C   0  0  0  0  0  0  0  0  0  0  0  0
    0.5834   -1.9602    0.0000 N   0  0  0  0  0  0  0  0  0  0  0  0
    1.2979   -1.5477    0.0000 C   0  0  0  0  0  0  0  0  0  0  0  0
    2.0124   -1.9602    0.0000 C   0  0  0  0  0  0  0  0  0  0  0  0
    2.7269   -1.5477    0.0000 N   0  0  0  0  0  0  0  0  0  0  0  0
    0.5834   -2.7852    0.0000 C   0  0  0  0  0  0  0  0  0  0  0  0
   -1.1576   -0.2656    0.0000 C   0  0  0  0  0  0  0  0  0  0  0  0
   -1.3291    0.5414    0.0000 C   0  0  0  0  0  0  0  0  0  0  0  0
    1.4464    0.6703    0.0000 Cl  0  0  0  0  0  0  0  0  0  0  0  0
    1.4464   -0.1547    0.0000 Cl  0  0  0  0  0  0  0  0  0  0  0  0
  1  2  1  0      
  2  3  1  0      
  2  4  1  0      
  4  5  1  0      
  5  6  2  0      
  6  7  1  0      
  7  8  2  0      
  8  9  1  0      
  9 10  2  0      
 10 11  1  0      
 11 12  1  0      
 12 13  2  0      
  9 13  1  0      
 13 14  1  0      
 14 15  1  0      
 15 16  1  0      
 16 17  1  0      
 17 18  1  0      
 15 19  1  0      
  8 20  1  0      
 20 21  2  0      
  5 21  1  0      
M  END

>  <RackCode>
HYCPK72334

>  <Cat. No.>
HY-19615B

>  <Product Name>
MS023 (dihydrochloride)

>  <ROW>
H

>  <COLUMN>
16

>  <CAS No.>
1992047-64-9

>  <MWt>
360.32

>  <Target>
Histone Methyltransferase

>  <Saltdate>
Hydrochloride

>  <Smiles>
CC(OC1=CC=C(C=C1)C2=CNC=C2CN(C)CCN)C.Cl.Cl

>  <Solvent>
DMSO Solution

>  <Batch No.>
239995

>  <Quantity>
10mM  * 50uL

>  <Pathway>
Epigenetics

>  <Synonyms>


>  <Formula>
C17H27Cl2N3O

>  <Research_Area>
Cancer

>  <Clinical_Information>
No Development Reported

>  <SUPPLIER>
MedChemExpress

$$$$
Untitled Document
  ChemDraw02231815152D

 27 31  0  0  0  0  0  0  0  0999 V2000
    2.1582   -0.4707    0.0000 C   0  0  0  0  0  0  0  0  0  0  0  0
    1.3332   -0.4707    0.0000 C   0  0  0  0  0  0  0  0  0  0  0  0
    0.9207   -1.1851    0.0000 O   0  0  0  0  0  0  0  0  0  0  0  0
    0.0957   -1.1851    0.0000 C   0  0  0  0  0  0  0  0  0  0  0  0
   -0.3168   -1.8996    0.0000 C   0  0  0  0  0  0  0  0  0  0  0  0
   -1.1418   -1.8996    0.0000 C   0  0  0  0  0  0  0  0  0  0  0  0
   -1.5543   -1.1851    0.0000 C   0  0  0  0  0  0  0  0  0  0  0  0
   -1.1418   -0.4707    0.0000 C   0  0  0  0  0  0  0  0  0  0  0  0
   -0.3168   -0.4707    0.0000 C   0  0  0  0  0  0  0  0  0  0  0  0
   -2.3793   -1.1851    0.0000 C   0  0  0  0  0  0  0  0  0  0  0  0
   -3.0938   -1.5976    0.0000 C   0  0  0  0  0  0  0  0  0  0  0  0
   -3.8082   -1.1851    0.0000 C   0  0  0  0  0  0  0  0  0  0  0  0
   -3.7932   -1.9894    0.0000 C   0  0  0  0  0  0  0  0  0  0  0  0
   -3.0941   -2.3872    0.0000 C   0  0  0  0  0  0  0  0  0  0  0  0
   -3.4905   -1.1678    0.0000 C   0  0  0  0  0  0  0  0  0  0  0  0
   -3.0938    0.0524    0.0000 C   0  0  0  0  0  0  0  0  0  0  0  0
   -2.3793   -0.3601    0.0000 C   0  0  0  0  0  0  0  0  0  0  0  0
   -2.3950   -1.9894    0.0000 C   0  0  0  0  0  0  0  0  0  0  0  0
   -3.8082   -0.3601    0.0000 C   0  0  0  0  0  0  0  0  0  0  0  0
    2.5707    0.2438    0.0000 N   0  0  0  0  0  0  0  0  0  0  0  0
    2.1582    0.9583    0.0000 C   0  0  0  0  0  0  0  0  0  0  0  0
    2.5707    1.6727    0.0000 C   0  0  0  0  0  0  0  0  0  0  0  0
    3.3957    1.6727    0.0000 N   0  0  0  0  0  0  0  0  0  0  0  0
    3.8082    0.9583    0.0000 C   0  0  0  0  0  0  0  0  0  0  0  0
    3.3957    0.2438    0.0000 C   0  0  0  0  0  0  0  0  0  0  0  0
    3.8082    2.3872    0.0000 C   0  0  0  0  0  0  0  0  0  0  0  0
    2.5707   -1.1851    0.0000 O   0  0  0  0  0  0  0  0  0  0  0  0
  1  2  1  0      
  4  5  1  0      
  5  6  2  0      
  6  7  1  0      
  7  8  2  0      
  8  9  1  0      
  4  9  2  0      
  3  4  1  0      
 10 11  1  0      
 11 12  1  0      
 12 13  1  0      
 13 14  1  0      
 14 15  1  0      
 15 16  1  0      
 16 17  1  0      
 10 17  1  0      
 10 18  1  0      
 14 18  1  0      
 16 19  1  0      
 12 19  1  0      
  7 10  1  0      
  2  3  1  0      
 20 21  1  0      
 21 22  1  0      
 22 23  1  0      
 23 24  1  0      
 24 25  1  0      
 20 25  1  0      
 23 26  1  0      
  1 20  1  0      
  1 27  2  0      
M  END

>  <RackCode>
HYCPK72334

>  <Cat. No.>
HY-111387

>  <Product Name>
IDF-11774

>  <ROW>
I

>  <COLUMN>
16

>  <CAS No.>
1429054-28-3

>  <MWt>
368.51

>  <Target>
HIF/HIF Prolyl-Hydroxylase

>  <Saltdate>
Free Base

>  <Smiles>
CN1CCN(C(COC2=CC=C(C3(C4)CC5CC4CC(C5)C3)C=C2)=O)CC1

>  <Solvent>
DMSO Solution

>  <Batch No.>
257949

>  <Quantity>
10mM  * 50uL

>  <Pathway>
Metabolic Enzyme/Protease

>  <Synonyms>


>  <Formula>
C23H32N2O2

>  <Research_Area>
Cancer

>  <Clinical_Information>
No Development Reported

>  <SUPPLIER>
MedChemExpress

$$$$
Untitled Document
  ChemDraw12201617292D

 30 31  0  0  0  0  0  0  0  0999 V2000
   -0.3573    0.2062    0.0000 S   0  0  0  0  0  0  0  0  0  0  0  0
    0.3573   -0.2062    0.0000 S   0  0  0  0  0  0  0  0  0  0  0  0
   -1.7863    0.2062    0.0000 C   0  0  0  0  0  0  0  0  0  0  0  0
   -1.0718   -0.2062    0.0000 C   0  0  0  0  0  0  0  0  0  0  0  0
    1.7863   -0.2062    0.0000 C   0  0  0  0  0  0  0  0  0  0  0  0
    1.0718    0.2062    0.0000 C   0  0  0  0  0  0  0  0  0  0  0  0
   -3.9297    0.6188    0.0000 C   0  0  0  0  0  0  0  0  0  0  0  0
   -3.9297    1.4438    0.0000 C   0  0  0  0  0  0  0  0  0  0  0  0
   -4.6442    1.8563    0.0000 C   0  0  0  0  0  0  0  0  0  0  0  0
   -5.3587    1.4438    0.0000 C   0  0  0  0  0  0  0  0  0  0  0  0
   -5.3587    0.6188    0.0000 C   0  0  0  0  0  0  0  0  0  0  0  0
   -4.6442    0.2062    0.0000 C   0  0  0  0  0  0  0  0  0  0  0  0
   -3.2153    0.2062    0.0000 S   0  0  0  0  0  0  0  0  0  0  0  0
   -2.8027    0.9207    0.0000 O   0  0  0  0  0  0  0  0  0  0  0  0
   -3.6277   -0.5083    0.0000 O   0  0  0  0  0  0  0  0  0  0  0  0
   -2.5008   -0.2062    0.0000 N   0  0  0  0  0  0  0  0  0  0  0  0
   -6.0732    0.2062    0.0000 Cl  0  0  0  0  0  0  0  0  0  0  0  0
   -3.2153    1.8563    0.0000 Cl  0  0  0  0  0  0  0  0  0  0  0  0
    3.9297   -0.6188    0.0000 C   0  0  0  0  0  0  0  0  0  0  0  0
    3.9297   -1.4438    0.0000 C   0  0  0  0  0  0  0  0  0  0  0  0
    4.6442   -1.8563    0.0000 C   0  0  0  0  0  0  0  0  0  0  0  0
    5.3587   -1.4438    0.0000 C   0  0  0  0  0  0  0  0  0  0  0  0
    5.3587   -0.6188    0.0000 C   0  0  0  0  0  0  0  0  0  0  0  0
    4.6442   -0.2062    0.0000 C   0  0  0  0  0  0  0  0  0  0  0  0
    3.2153   -0.2062    0.0000 S   0  0  0  0  0  0  0  0  0  0  0  0
    2.8027   -0.9207    0.0000 O   0  0  0  0  0  0  0  0  0  0  0  0
    3.6277    0.5083    0.0000 O   0  0  0  0  0  0  0  0  0  0  0  0
    2.5008    0.2062    0.0000 N   0  0  0  0  0  0  0  0  0  0  0  0
    6.0732   -0.2062    0.0000 Cl  0  0  0  0  0  0  0  0  0  0  0  0
    3.2153   -1.8563    0.0000 Cl  0  0  0  0  0  0  0  0  0  0  0  0
  1  2  1  0      
  3  4  1  0      
  1  4  1  0      
  5  6  1  0      
  2  6  1  0      
  7  8  1  0      
  8  9  2  0      
  9 10  1  0      
 10 11  2  0      
 11 12  1  0      
  7 12  2  0      
 13 14  2  0      
 13 15  2  0      
 13 16  1  0      
  7 13  1  0      
 11 17  1  0      
  8 18  1  0      
  3 16  1  0      
 19 20  1  0      
 20 21  2  0      
 21 22  1  0      
 22 23  2  0      
 23 24  1  0      
 19 24  2  0      
 25 26  2  0      
 25 27  2  0      
 25 28  1  0      
 19 25  1  0      
 23 29  1  0      
 20 30  1  0      
  5 28  1  0      
M  END

>  <RackCode>
HYCPK72334

>  <Cat. No.>
HY-18777

>  <Product Name>
KC7F2

>  <ROW>
J

>  <COLUMN>
16

>  <CAS No.>
927822-86-4

>  <MWt>
570.38

>  <Target>
HIF/HIF Prolyl-Hydroxylase

>  <Saltdate>
Free Base

>  <Smiles>
O=S(C1=CC(Cl)=CC=C1Cl)(NCCSSCCNS(C2=CC(Cl)=CC=C2Cl)(=O)=O)=O

>  <Solvent>
DMSO Solution

>  <Batch No.>
18453

>  <Quantity>
10mM  * 50uL

>  <Pathway>
Metabolic Enzyme/Protease

>  <Synonyms>


>  <Formula>
C16H16Cl4N2O4S4

>  <Research_Area>
Cancer

>  <Clinical_Information>
No Development Reported

>  <SUPPLIER>
MedChemExpress

$$$$
Untitled Document
  ChemDraw04272312542D

 28 31  0  0  0  0  0  0  0  0999 V2000
    4.3558   -1.7325    0.0000 O   0  0  0  0  0  0  0  0  0  0  0  0
    3.9433   -1.0180    0.0000 C   0  0  0  0  0  0  0  0  0  0  0  0
    4.3558   -0.3036    0.0000 O   0  0  0  0  0  0  0  0  0  0  0  0
    5.1808   -0.3036    0.0000 C   0  0  0  0  0  0  0  0  0  0  0  0
    3.1183   -1.0180    0.0000 C   0  0  0  0  0  0  0  0  0  0  0  0
    2.6335   -0.3506    0.0000 N   0  0  0  0  0  0  0  0  0  0  0  0
    1.8489   -0.6055    0.0000 N   0  0  0  0  0  0  0  0  0  0  0  0
    1.1344   -0.1930    0.0000 C   0  0  0  0  0  0  0  0  0  0  0  0
    0.4199   -0.6055    0.0000 C   0  0  0  0  0  0  0  0  0  0  0  0
    0.4199   -1.4305    0.0000 N   0  0  0  0  0  0  0  0  0  0  0  0
    1.1344   -1.8430    0.0000 C   0  0  0  0  0  0  0  0  0  0  0  0
    1.1344   -2.6680    0.0000 O   0  0  0  0  0  0  0  0  0  0  0  0
    1.8489   -1.4305    0.0000 C   0  0  0  0  0  0  0  0  0  0  0  0
    2.6335   -1.6855    0.0000 C   0  0  0  0  0  0  0  0  0  0  0  0
   -0.2945   -0.1930    0.0000 C   0  0  0  0  0  0  0  0  0  0  0  0
   -0.3808    0.6275    0.0000 C   0  0  0  0  0  0  0  0  0  0  0  0
   -1.1878    0.7990    0.0000 N   0  0  0  0  0  0  0  0  0  0  0  0
   -1.6003    0.0845    0.0000 N   0  0  0  0  0  0  0  0  0  0  0  0
   -1.0482   -0.5286    0.0000 C   0  0  0  0  0  0  0  0  0  0  0  0
   -2.4207   -0.0017    0.0000 C   0  0  0  0  0  0  0  0  0  0  0  0
   -2.9057    0.6657    0.0000 C   0  0  0  0  0  0  0  0  0  0  0  0
   -3.7260    0.5795    0.0000 C   0  0  0  0  0  0  0  0  0  0  0  0
   -4.2110    1.2469    0.0000 C   0  0  0  0  0  0  0  0  0  0  0  0
   -3.8754    2.0006    0.0000 C   0  0  0  0  0  0  0  0  0  0  0  0
   -4.3603    2.6680    0.0000 O   0  0  0  0  0  0  0  0  0  0  0  0
   -5.1808    2.5818    0.0000 C   0  0  0  0  0  0  0  0  0  0  0  0
   -3.0549    2.0868    0.0000 C   0  0  0  0  0  0  0  0  0  0  0  0
   -2.5701    1.4194    0.0000 C   0  0  0  0  0  0  0  0  0  0  0  0
  1  2  2  0      
  2  3  1  0      
  3  4  1  0      
  2  5  1  0      
  5  6  2  0      
  6  7  1  0      
  7  8  1  0      
  8  9  2  0      
  9 10  1  0      
 10 11  1  0      
 11 12  2  0      
 11 13  1  0      
  7 13  1  0      
 13 14  2  0      
  5 14  1  0      
  9 15  1  0      
 15 16  1  0      
 16 17  2  0      
 17 18  1  0      
 18 19  1  0      
 15 19  2  0      
 18 20  1  0      
 20 21  1  0      
 21 22  2  0      
 22 23  1  0      
 23 24  2  0      
 24 25  1  0      
 25 26  1  0      
 24 27  1  0      
 27 28  2  0      
 21 28  1  0      
M  END

>  <RackCode>
HYCPK72334

>  <Cat. No.>
HY-153440

>  <Product Name>
JAK-IN-25

>  <ROW>
K

>  <COLUMN>
16

>  <CAS No.>
2127110-22-7

>  <MWt>
379.37

>  <Target>
JAK

>  <Saltdate>


>  <Smiles>
O=C(C1=NN2C=C(C3=CN(CC4=CC=C(C=C4)OC)N=C3)NC(C2=C1)=O)OC

>  <Solvent>
DMSO Solution

>  <Batch No.>
275036

>  <Quantity>
10mM  * 50uL

>  <Pathway>
Epigenetics; JAK/STAT Signaling; Protein Tyrosine Kinase/RTK; Stem Cell/Wnt

>  <Synonyms>


>  <Formula>
C19H17N5O4

>  <Research_Area>
Cancer

>  <Clinical_Information>
No Development Reported

>  <SUPPLIER>
MedChemExpress

$$$$
Untitled Document
  ChemDraw03051914292D

 27 30  0  0  0  0  0  0  0  0999 V2000
    2.5006   -1.4779    0.0000 C   0  0  0  0  0  0  0  0  0  0  0  0
    1.7862   -1.0654    0.0000 C   0  0  0  0  0  0  0  0  0  0  0  0
    1.0717   -1.4779    0.0000 C   0  0  0  0  0  0  0  0  0  0  0  0
    0.3572   -1.0654    0.0000 C   0  0  0  0  0  0  0  0  0  0  0  0
    0.3572   -0.2404    0.0000 C   0  0  0  0  0  0  0  0  0  0  0  0
    1.0717    0.1721    0.0000 C   0  0  0  0  0  0  0  0  0  0  0  0
    1.7862   -0.2404    0.0000 C   0  0  0  0  0  0  0  0  0  0  0  0
    2.5006   -2.3029    0.0000 O   0  0  0  0  0  0  0  0  0  0  0  0
    3.2151   -1.0654    0.0000 O   0  0  0  0  0  0  0  0  0  0  0  0
   -1.0717   -0.2404    0.0000 N   0  0  0  0  0  0  0  0  0  0  0  0
   -0.3572    0.1721    0.0000 C   0  0  0  0  0  0  0  0  0  0  0  0
   -0.3572    0.9971    0.0000 C   0  0  0  0  0  0  0  0  0  0  0  0
   -1.0717    1.4096    0.0000 C   0  0  0  0  0  0  0  0  0  0  0  0
   -1.7862    0.9971    0.0000 C   0  0  0  0  0  0  0  0  0  0  0  0
   -2.5006    1.4096    0.0000 C   0  0  0  0  0  0  0  0  0  0  0  0
   -3.2151    0.9971    0.0000 C   0  0  0  0  0  0  0  0  0  0  0  0
   -3.2151    0.1721    0.0000 C   0  0  0  0  0  0  0  0  0  0  0  0
   -2.5006   -0.2404    0.0000 C   0  0  0  0  0  0  0  0  0  0  0  0
   -1.7862    0.1721    0.0000 C   0  0  0  0  0  0  0  0  0  0  0  0
   -0.9002    2.2166    0.0000 C   0  0  0  0  0  0  0  0  0  0  0  0
   -0.0797    2.3029    0.0000 C   0  0  0  0  0  0  0  0  0  0  0  0
    0.2559    1.5492    0.0000 C   0  0  0  0  0  0  0  0  0  0  0  0
   -2.5006   -1.0654    0.0000 O   0  0  0  0  0  0  0  0  0  0  0  0
   -3.2151   -1.4779    0.0000 C   0  0  0  0  0  0  0  0  0  0  0  0
   -3.2151   -2.3029    0.0000 C   0  0  0  0  0  0  0  0  0  0  0  0
    0.3964    0.6616    0.0000 H   0  0  0  0  0  0  0  0  0  0  0  0
   -1.7391    1.8946    0.0000 H   0  0  0  0  0  0  0  0  0  0  0  0
  1  2  1  0      
  2  3  1  0      
  3  4  2  0      
  4  5  1  0      
  5  6  2  0      
  6  7  1  0      
  2  7  2  0      
  1  8  2  0      
  1  9  1  0      
 10 11  1  0      
 11 12  1  0      
 12 13  1  0      
 13 14  1  0      
 14 15  1  0      
 15 16  2  0      
 16 17  1  0      
 17 18  2  0      
 18 19  1  0      
 10 19  1  0      
 14 19  2  0      
 20 21  2  0      
 21 22  1  0      
 12 22  1  0      
 13 20  1  0      
 24 25  1  0      
 23 24  1  0      
 18 23  1  0      
 11  5  1  6      
 12 26  1  1      
 13 27  1  1      
M  END

>  <RackCode>
HYCPK72334

>  <Cat. No.>
HY-123905

>  <Product Name>
LIN28 inhibitor LI71

>  <ROW>
L

>  <COLUMN>
16

>  <CAS No.>
1357248-83-9

>  <MWt>
335.40

>  <Target>
MicroRNA

>  <Saltdate>
Free Acid

>  <Smiles>
O=C(O)C1=CC=C([C@@H]2NC3=C(C=CC=C3OCC)[C@@]4([H])[C@]2([H])CC=C4)C=C1

>  <Solvent>
DMSO Solution

>  <Batch No.>
79057

>  <Quantity>
10mM  * 50uL

>  <Pathway>
Epigenetics

>  <Synonyms>


>  <Formula>
C21H21NO3

>  <Research_Area>
Cancer

>  <Clinical_Information>
No Development Reported

>  <SUPPLIER>
MedChemExpress

$$$$
Untitled Document
  ChemDraw02152313412D

 27 31  0  0  0  0  0  0  0  0999 V2000
    1.8353    1.2497    0.0000 O   0  0  0  0  0  0  0  0  0  0  0  0
    1.6225    0.4555    0.0000 C   0  0  0  0  0  0  0  0  0  0  0  0
    2.2038   -0.1258    0.0000 C   0  0  0  0  0  0  0  0  0  0  0  0
    2.0748   -0.9406    0.0000 O   0  0  0  0  0  0  0  0  0  0  0  0
    2.8099   -1.3152    0.0000 C   0  0  0  0  0  0  0  0  0  0  0  0
    3.3933   -0.7318    0.0000 C   0  0  0  0  0  0  0  0  0  0  0  0
    3.0188    0.0033    0.0000 C   0  0  0  0  0  0  0  0  0  0  0  0
    0.8406    0.2015    0.0000 N   0  0  0  0  0  0  0  0  0  0  0  0
    0.2275    0.7535    0.0000 C   0  0  0  0  0  0  0  0  0  0  0  0
   -0.5571    0.4986    0.0000 C   0  0  0  0  0  0  0  0  0  0  0  0
   -0.7287   -0.3084    0.0000 N   0  0  0  0  0  0  0  0  0  0  0  0
   -1.5106   -0.5624    0.0000 C   0  0  0  0  0  0  0  0  0  0  0  0
   -1.6821   -1.3694    0.0000 N   0  0  0  0  0  0  0  0  0  0  0  0
   -2.4668   -1.6244    0.0000 C   0  0  0  0  0  0  0  0  0  0  0  0
   -3.0799   -1.0723    0.0000 N   0  0  0  0  0  0  0  0  0  0  0  0
   -2.9084   -0.2654    0.0000 C   0  0  0  0  0  0  0  0  0  0  0  0
   -3.3933    0.4021    0.0000 S   0  0  0  0  0  0  0  0  0  0  0  0
   -2.9084    1.0695    0.0000 C   0  0  0  0  0  0  0  0  0  0  0  0
   -2.1237    0.8146    0.0000 C   0  0  0  0  0  0  0  0  0  0  0  0
   -2.1237   -0.0104    0.0000 C   0  0  0  0  0  0  0  0  0  0  0  0
   -1.5106    1.3666    0.0000 C   0  0  0  0  0  0  0  0  0  0  0  0
   -1.6821    2.1736    0.0000 C   0  0  0  0  0  0  0  0  0  0  0  0
   -2.4668    2.4286    0.0000 C   0  0  0  0  0  0  0  0  0  0  0  0
   -3.0799    1.8765    0.0000 C   0  0  0  0  0  0  0  0  0  0  0  0
   -2.6377   -2.4286    0.0000 C   0  0  0  0  0  0  0  0  0  0  0  0
   -0.1156   -0.8604    0.0000 C   0  0  0  0  0  0  0  0  0  0  0  0
    0.6691   -0.6055    0.0000 C   0  0  0  0  0  0  0  0  0  0  0  0
  1  2  2  0      
  2  3  1  0      
  3  4  1  0      
  4  5  1  0      
  5  6  2  0      
  6  7  1  0      
  3  7  2  0      
  2  8  1  0      
  8  9  1  0      
  9 10  1  0      
 10 11  1  0      
 11 12  1  0      
 12 13  1  0      
 13 14  2  0      
 14 15  1  0      
 15 16  2  0      
 16 17  1  0      
 17 18  1  0      
 18 19  2  0      
 19 20  1  0      
 16 20  1  0      
 12 20  2  0      
 19 21  1  0      
 21 22  1  0      
 22 23  1  0      
 23 24  1  0      
 18 24  1  0      
 14 25  1  0      
 11 26  1  0      
 26 27  1  0      
  8 27  1  0      
M  END

>  <RackCode>
HYCPK72334

>  <Cat. No.>
HY-122246

>  <Product Name>
ML192

>  <ROW>
M

>  <COLUMN>
16

>  <CAS No.>
460331-61-7

>  <MWt>
382.48

>  <Target>
Arrestin; ERK; GPR55; PKC

>  <Saltdate>


>  <Smiles>
O=C(N1CCN(CC1)C2=C3C(CCCC4)=C4SC3=NC(C)=N2)C5=CC=CO5

>  <Solvent>
DMSO Solution

>  <Batch No.>
262274

>  <Quantity>
10mM  * 50uL

>  <Pathway>
Epigenetics; GPCR/G Protein; MAPK/ERK Pathway; Neuronal Signaling; Stem Cell/Wnt; TGF-beta/Smad

>  <Synonyms>


>  <Formula>
C20H22N4O2S

>  <Research_Area>
Metabolic Disease

>  <Clinical_Information>
No Development Reported

>  <SUPPLIER>
MedChemExpress

$$$$
Untitled Document
  ChemDraw03142217032D

 23 24  0  0  0  0  0  0  0  0999 V2000
    2.8580   -1.4437    0.0000 C   0  0  0  0  0  0  0  0  0  0  0  0
    2.1435   -1.0313    0.0000 C   0  0  0  0  0  0  0  0  0  0  0  0
    2.1435   -0.2062    0.0000 C   0  0  0  0  0  0  0  0  0  0  0  0
    1.4289    0.2062    0.0000 C   0  0  0  0  0  0  0  0  0  0  0  0
    0.7145   -0.2062    0.0000 C   0  0  0  0  0  0  0  0  0  0  0  0
    0.7145   -1.0313    0.0000 C   0  0  0  0  0  0  0  0  0  0  0  0
    1.4289   -1.4437    0.0000 C   0  0  0  0  0  0  0  0  0  0  0  0
    2.8580   -2.2688    0.0000 O   0  0  0  0  0  0  0  0  0  0  0  0
    3.5725   -1.0313    0.0000 N   0  0  0  0  0  0  0  0  0  0  0  0
   -0.0000    0.2062    0.0000 C   0  0  0  0  0  0  0  0  0  0  0  0
   -0.7145   -0.2062    0.0000 N   0  0  0  0  0  0  0  0  0  0  0  0
   -1.4289    0.2062    0.0000 C   0  0  0  0  0  0  0  0  0  0  0  0
   -1.4289    1.0313    0.0000 O   0  0  0  0  0  0  0  0  0  0  0  0
   -2.1435   -0.2062    0.0000 N   0  0  0  0  0  0  0  0  0  0  0  0
   -2.8580    0.2062    0.0000 C   0  0  0  0  0  0  0  0  0  0  0  0
   -2.8580    1.0313    0.0000 C   0  0  0  0  0  0  0  0  0  0  0  0
   -3.5725    1.4437    0.0000 C   0  0  0  0  0  0  0  0  0  0  0  0
   -4.2869    1.0313    0.0000 C   0  0  0  0  0  0  0  0  0  0  0  0
   -4.2869    0.2062    0.0000 C   0  0  0  0  0  0  0  0  0  0  0  0
   -3.5725   -0.2062    0.0000 C   0  0  0  0  0  0  0  0  0  0  0  0
   -2.1435    1.4437    0.0000 O   0  0  0  0  0  0  0  0  0  0  0  0
   -2.1435    2.2688    0.0000 C   0  0  0  0  0  0  0  0  0  0  0  0
    4.2869   -1.4437    0.0000 O   0  0  0  0  0  0  0  0  0  0  0  0
  1  2  1  0      
  2  3  1  0      
  3  4  2  0      
  4  5  1  0      
  5  6  2  0      
  6  7  1  0      
  2  7  2  0      
  1  8  2  0      
  1  9  1  0      
 12 13  2  0      
 15 16  1  0      
 16 17  2  0      
 17 18  1  0      
 18 19  2  0      
 19 20  1  0      
 15 20  2  0      
 21 22  1  0      
 16 21  1  0      
 14 15  1  0      
 12 14  1  0      
 11 12  1  0      
 10 11  1  0      
  5 10  1  0      
  9 23  1  0      
M  END

>  <RackCode>
HYCPK72334

>  <Cat. No.>
HY-145757

>  <Product Name>
Elevenostat

>  <ROW>
N

>  <COLUMN>
16

>  <CAS No.>
1454902-97-6

>  <MWt>
315.32

>  <Target>
HDAC

>  <Saltdate>


>  <Smiles>
O=C(NO)C1=CC=C(CNC(NC2=CC=CC=C2OC)=O)C=C1

>  <Solvent>
DMSO Solution

>  <Batch No.>
287791

>  <Quantity>
10mM  * 50uL

>  <Pathway>
Cell Cycle/DNA Damage; Epigenetics

>  <Synonyms>
JB3-22

>  <Formula>
C16H17N3O4

>  <Research_Area>
Cancer

>  <Clinical_Information>
No Development Reported

>  <SUPPLIER>
MedChemExpress

$$$$
Untitled Document
  ChemDraw09111711112D

 24 27  0  0  0  0  0  0  0  0999 V2000
   -3.6323   -0.2034    0.0000 C   0  0  0  0  0  0  0  0  0  0  0  0
   -3.6323   -1.0285    0.0000 C   0  0  0  0  0  0  0  0  0  0  0  0
   -2.9162   -1.4410    0.0000 C   0  0  0  0  0  0  0  0  0  0  0  0
   -2.1999   -1.0285    0.0000 C   0  0  0  0  0  0  0  0  0  0  0  0
   -2.1999   -0.2034    0.0000 C   0  0  0  0  0  0  0  0  0  0  0  0
   -2.9162    0.2035    0.0000 C   0  0  0  0  0  0  0  0  0  0  0  0
   -1.4151   -1.2863    0.0000 N   0  0  0  0  0  0  0  0  0  0  0  0
   -0.9281   -0.6159    0.0000 C   0  0  0  0  0  0  0  0  0  0  0  0
   -1.4151    0.0488    0.0000 N   0  0  0  0  0  0  0  0  0  0  0  0
   -0.1088   -0.6159    0.0000 C   0  0  0  0  0  0  0  0  0  0  0  0
    0.3037   -1.3321    0.0000 C   0  0  0  0  0  0  0  0  0  0  0  0
    1.1287   -1.3321    0.0000 C   0  0  0  0  0  0  0  0  0  0  0  0
    1.5412   -0.6159    0.0000 C   0  0  0  0  0  0  0  0  0  0  0  0
    1.1287    0.0946    0.0000 C   0  0  0  0  0  0  0  0  0  0  0  0
    0.3037    0.0946    0.0000 C   0  0  0  0  0  0  0  0  0  0  0  0
   -0.1088    0.8050    0.0000 F   0  0  0  0  0  0  0  0  0  0  0  0
    2.3662   -0.6159    0.0000 C   0  0  0  0  0  0  0  0  0  0  0  0
    2.8474   -1.2863    0.0000 N   0  0  0  0  0  0  0  0  0  0  0  0
    3.6323   -1.0285    0.0000 C   0  0  0  0  0  0  0  0  0  0  0  0
    3.6323   -0.2034    0.0000 C   0  0  0  0  0  0  0  0  0  0  0  0
    2.8474    0.0488    0.0000 C   0  0  0  0  0  0  0  0  0  0  0  0
   -2.9162    1.0284    0.0000 C   0  0  0  0  0  0  0  0  0  0  0  0
   -2.2017    1.4410    0.0000 O   0  0  0  0  0  0  0  0  0  0  0  0
   -3.6307    1.4410    0.0000 N   0  0  0  0  0  0  0  0  0  0  0  0
  3  4  2  0      
  4  5  1  0      
  5  6  2  0      
  6  1  1  0      
  4  7  1  0      
  7  8  1  0      
  8  9  2  0      
  9  5  1  0      
  8 10  1  0      
 10 11  2  0      
 11 12  1  0      
 12 13  2  0      
 13 14  1  0      
 14 15  2  0      
 15 10  1  0      
 15 16  1  0      
 17 18  1  0      
 18 19  1  0      
 19 20  1  0      
 20 21  1  0      
 21 17  1  0      
 17 13  1  6      
  1  2  2  0      
  2  3  1  0      
  6 22  1  0      
 22 23  2  0      
 22 24  1  0      
M  END

>  <RackCode>
HYCPK72334

>  <Cat. No.>
HY-10614

>  <Product Name>
A-966492

>  <ROW>
O

>  <COLUMN>
16

>  <CAS No.>
934162-61-5

>  <MWt>
324.35

>  <Target>
PARP

>  <Saltdate>
Free Base

>  <Smiles>
FC1=CC([C@H]2NCCC2)=CC=C1C3=NC4=C(C(N)=O)C=CC=C4N3

>  <Solvent>
DMSO Solution

>  <Batch No.>
13514

>  <Quantity>
10mM  * 50uL

>  <Pathway>
Cell Cycle/DNA Damage; Epigenetics

>  <Synonyms>


>  <Formula>
C18H17FN4O

>  <Research_Area>
Cancer

>  <Clinical_Information>
No Development Reported

>  <SUPPLIER>
MedChemExpress

$$$$
Untitled Document
  ChemDraw06032211552D

 23 23  0  0  0  0  0  0  0  0999 V2000
   -1.7861   -1.0313    0.0000 C   0  0  0  0  0  0  0  0  0  0  0  0
   -2.5005   -0.6187    0.0000 C   0  0  0  0  0  0  0  0  0  0  0  0
   -3.2150   -1.0313    0.0000 C   0  0  0  0  0  0  0  0  0  0  0  0
   -3.9295   -0.6187    0.0000 C   0  0  0  0  0  0  0  0  0  0  0  0
   -3.9295    0.2062    0.0000 C   0  0  0  0  0  0  0  0  0  0  0  0
   -3.2150    0.6187    0.0000 C   0  0  0  0  0  0  0  0  0  0  0  0
   -2.5005    0.2062    0.0000 C   0  0  0  0  0  0  0  0  0  0  0  0
   -1.7861   -1.8562    0.0000 O   0  0  0  0  0  0  0  0  0  0  0  0
   -1.0717   -0.6187    0.0000 N   0  0  0  0  0  0  0  0  0  0  0  0
   -3.2150    1.4437    0.0000 O   0  0  0  0  0  0  0  0  0  0  0  0
   -3.9295    1.8562    0.0000 C   0  0  0  0  0  0  0  0  0  0  0  0
   -4.6440   -1.0313    0.0000 O   0  0  0  0  0  0  0  0  0  0  0  0
   -5.3583   -0.6187    0.0000 C   0  0  0  0  0  0  0  0  0  0  0  0
   -0.3572   -1.0313    0.0000 O   0  0  0  0  0  0  0  0  0  0  0  0
    0.3572   -0.6187    0.0000 C   0  0  0  0  0  0  0  0  0  0  0  0
    1.0717   -1.0313    0.0000 C   0  0  0  0  0  0  0  0  0  0  0  0
    1.7861   -0.6187    0.0000 C   0  0  0  0  0  0  0  0  0  0  0  0
    2.5005   -1.0313    0.0000 C   0  0  0  0  0  0  0  0  0  0  0  0
    3.2150   -0.6187    0.0000 C   0  0  0  0  0  0  0  0  0  0  0  0
    3.9295   -1.0313    0.0000 C   0  0  0  0  0  0  0  0  0  0  0  0
    3.9295   -1.8562    0.0000 O   0  0  0  0  0  0  0  0  0  0  0  0
    4.6440   -0.6187    0.0000 N   0  0  0  0  0  0  0  0  0  0  0  0
    5.3583   -1.0313    0.0000 O   0  0  0  0  0  0  0  0  0  0  0  0
  1  2  1  0      
  2  3  1  0      
  3  4  2  0      
  4  5  1  0      
  5  6  2  0      
  6  7  1  0      
  2  7  2  0      
  1  8  2  0      
  1  9  1  0      
 10 11  1  0      
  6 10  1  0      
 12 13  1  0      
  4 12  1  0      
 15 16  1  0      
 16 17  1  0      
 17 18  1  0      
 18 19  1  0      
 19 20  1  0      
 20 21  2  0      
 22 23  1  0      
 20 22  1  0      
 14 15  1  0      
  9 14  1  0      
M  END

>  <RackCode>
HYCPK72334

>  <Cat. No.>
HY-146153

>  <Product Name>
HDAC-IN-40

>  <ROW>
P

>  <COLUMN>
16

>  <CAS No.>
2463198-51-6

>  <MWt>
326.34

>  <Target>
HDAC

>  <Saltdate>


>  <Smiles>
O=C(NOCCCCCC(NO)=O)C1=CC(OC)=CC(OC)=C1

>  <Solvent>
DMSO Solution

>  <Batch No.>
230793

>  <Quantity>
10mM  * 50uL

>  <Pathway>
Cell Cycle/DNA Damage; Epigenetics

>  <Synonyms>


>  <Formula>
C15H22N2O6

>  <Research_Area>
Cancer

>  <Clinical_Information>
No Development Reported

>  <SUPPLIER>
MedChemExpress

$$$$
Untitled Document
  ChemDraw09092316262D

 21 22  0  0  0  0  0  0  0  0999 V2000
    2.1434   -1.6500    0.0000 C   0  0  0  0  0  0  0  0  0  0  0  0
    1.4289   -1.2375    0.0000 C   0  0  0  0  0  0  0  0  0  0  0  0
    0.7145   -1.6500    0.0000 C   0  0  0  0  0  0  0  0  0  0  0  0
    2.8579   -1.2375    0.0000 O   0  0  0  0  0  0  0  0  0  0  0  0
   -0.0000   -1.2375    0.0000 C   0  0  0  0  0  0  0  0  0  0  0  0
   -0.7145   -1.6500    0.0000 C   0  0  0  0  0  0  0  0  0  0  0  0
   -1.4289   -1.2375    0.0000 C   0  0  0  0  0  0  0  0  0  0  0  0
   -1.4289   -0.4125    0.0000 C   0  0  0  0  0  0  0  0  0  0  0  0
   -0.7145    0.0000    0.0000 C   0  0  0  0  0  0  0  0  0  0  0  0
   -0.0000   -0.4125    0.0000 C   0  0  0  0  0  0  0  0  0  0  0  0
   -2.1434    0.0000    0.0000 O   0  0  0  0  0  0  0  0  0  0  0  0
   -2.8579   -0.4125    0.0000 C   0  0  0  0  0  0  0  0  0  0  0  0
    1.4289   -0.4125    0.0000 C   0  0  0  0  0  0  0  0  0  0  0  0
    0.7145    0.0000    0.0000 C   0  0  0  0  0  0  0  0  0  0  0  0
    0.7145    0.8250    0.0000 C   0  0  0  0  0  0  0  0  0  0  0  0
    1.4289    1.2375    0.0000 C   0  0  0  0  0  0  0  0  0  0  0  0
    2.1434    0.8250    0.0000 C   0  0  0  0  0  0  0  0  0  0  0  0
    2.1434    0.0000    0.0000 C   0  0  0  0  0  0  0  0  0  0  0  0
    1.4289    2.0625    0.0000 O   0  0  0  0  0  0  0  0  0  0  0  0
    2.1434    2.4750    0.0000 C   0  0  0  0  0  0  0  0  0  0  0  0
    0.7145   -2.4750    0.0000 Cl  0  0  0  0  0  0  0  0  0  0  0  0
  1  2  1  0      
  2  3  2  0      
  1  4  2  0      
  5  6  1  0      
  6  7  2  0      
  7  8  1  0      
  8  9  2  0      
  9 10  1  0      
  5 10  2  0      
 11 12  1  0      
  8 11  1  0      
  3  5  1  0      
 13 14  1  0      
 14 15  2  0      
 15 16  1  0      
 16 17  2  0      
 17 18  1  0      
 13 18  2  0      
 19 20  1  0      
 16 19  1  0      
  2 13  1  0      
  3 21  1  0      
M  END

>  <RackCode>
HYCPK72334

>  <Cat. No.>
HY-115539

>  <Product Name>
Windorphen

>  <ROW>
A

>  <COLUMN>
17

>  <CAS No.>
19881-70-0

>  <MWt>
302.75

>  <Target>
Histone Acetyltransferase; Wnt; ¦Â-catenin

>  <Saltdate>


>  <Smiles>
O=C/C(C1=CC=C(OC)C=C1)=C(Cl)/C2=CC=C(OC)C=C2

>  <Solvent>
DMSO Solution

>  <Batch No.>
508000

>  <Quantity>
10mM  * 50uL

>  <Pathway>
Epigenetics; Stem Cell/Wnt

>  <Synonyms>


>  <Formula>
C17H15ClO3

>  <Research_Area>
Cancer

>  <Clinical_Information>
No Development Reported

>  <SUPPLIER>
MedChemExpress

$$$$
Untitled Document
  ChemDraw08072312392D

 21 23  0  0  0  0  0  0  0  0999 V2000
    3.2728    1.1423    0.0000 F   0  0  0  0  0  0  0  0  0  0  0  0
    2.7207    0.5292    0.0000 C   0  0  0  0  0  0  0  0  0  0  0  0
    2.9757   -0.2554    0.0000 C   0  0  0  0  0  0  0  0  0  0  0  0
    2.4236   -0.8685    0.0000 C   0  0  0  0  0  0  0  0  0  0  0  0
    1.6167   -0.6970    0.0000 C   0  0  0  0  0  0  0  0  0  0  0  0
    1.3617    0.0877    0.0000 C   0  0  0  0  0  0  0  0  0  0  0  0
    1.9138    0.7008    0.0000 C   0  0  0  0  0  0  0  0  0  0  0  0
    1.0646   -1.3101    0.0000 C   0  0  0  0  0  0  0  0  0  0  0  0
    1.3196   -2.0947    0.0000 O   0  0  0  0  0  0  0  0  0  0  0  0
    0.2577   -1.1385    0.0000 N   0  0  0  0  0  0  0  0  0  0  0  0
    0.0027   -0.3539    0.0000 C   0  0  0  0  0  0  0  0  0  0  0  0
   -0.8043   -0.1824    0.0000 C   0  0  0  0  0  0  0  0  0  0  0  0
   -1.0592    0.6022    0.0000 C   0  0  0  0  0  0  0  0  0  0  0  0
   -0.5743    1.2697    0.0000 C   0  0  0  0  0  0  0  0  0  0  0  0
   -1.0592    1.9371    0.0000 N   0  0  0  0  0  0  0  0  0  0  0  0
   -1.8438    1.6822    0.0000 C   0  0  0  0  0  0  0  0  0  0  0  0
   -2.5583    2.0947    0.0000 C   0  0  0  0  0  0  0  0  0  0  0  0
   -3.2728    1.6822    0.0000 C   0  0  0  0  0  0  0  0  0  0  0  0
   -3.2728    0.8572    0.0000 C   0  0  0  0  0  0  0  0  0  0  0  0
   -2.5583    0.4447    0.0000 C   0  0  0  0  0  0  0  0  0  0  0  0
   -1.8438    0.8572    0.0000 C   0  0  0  0  0  0  0  0  0  0  0  0
  1  2  1  0      
  2  3  2  0      
  3  4  1  0      
  4  5  2  0      
  5  6  1  0      
  6  7  2  0      
  2  7  1  0      
  5  8  1  0      
  8  9  2  0      
  8 10  1  0      
 10 11  1  0      
 11 12  1  0      
 12 13  1  0      
 13 14  2  0      
 14 15  1  0      
 15 16  1  0      
 16 17  2  0      
 17 18  1  0      
 18 19  2  0      
 19 20  1  0      
 20 21  2  0      
 13 21  1  0      
 16 21  1  0      
M  END

>  <RackCode>
HYCPK72334

>  <Cat. No.>
HY-155725

>  <Product Name>
Z26395438

>  <ROW>
B

>  <COLUMN>
17

>  <CAS No.>
2803-63-6

>  <MWt>
282.31

>  <Target>
Sirtuin

>  <Saltdate>


>  <Smiles>
FC1=CC=C(C(NCCC2=CNC3=CC=CC=C23)=O)C=C1

>  <Solvent>
DMSO Solution

>  <Batch No.>
339289

>  <Quantity>
10mM  * 50uL

>  <Pathway>
Cell Cycle/DNA Damage; Epigenetics

>  <Synonyms>


>  <Formula>
C17H15FN2O

>  <Research_Area>
others

>  <Clinical_Information>
No Development Reported

>  <SUPPLIER>
MedChemExpress

$$$$
Untitled Document
  ChemDraw01192016292D

 30 37  0  0  0  0  0  0  0  0999 V2000
    0.9739   -0.8720    0.0000 N   0  0  0  0  0  0  0  0  0  0  0  0
    1.7208   -0.5217    0.0000 C   0  0  0  0  0  0  0  0  0  0  0  0
    1.6185    0.2969    0.0000 C   0  0  0  0  0  0  0  0  0  0  0  0
    0.8083    0.4526    0.0000 C   0  0  0  0  0  0  0  0  0  0  0  0
    0.3818    1.1588    0.0000 C   0  0  0  0  0  0  0  0  0  0  0  0
   -0.4430    1.1426    0.0000 C   0  0  0  0  0  0  0  0  0  0  0  0
   -0.8414    0.4201    0.0000 C   0  0  0  0  0  0  0  0  0  0  0  0
   -1.6448    0.2328    0.0000 C   0  0  0  0  0  0  0  0  0  0  0  0
   -1.7149   -0.5893    0.0000 C   0  0  0  0  0  0  0  0  0  0  0  0
   -0.9548   -0.9099    0.0000 N   0  0  0  0  0  0  0  0  0  0  0  0
   -0.4149   -0.2861    0.0000 C   0  0  0  0  0  0  0  0  0  0  0  0
    0.4099   -0.2699    0.0000 C   0  0  0  0  0  0  0  0  0  0  0  0
   -0.7133    1.9220    0.0000 C   0  0  0  0  0  0  0  0  0  0  0  0
   -0.0556    2.4200    0.0000 N   0  0  0  0  0  0  0  0  0  0  0  0
    0.6213    1.9483    0.0000 C   0  0  0  0  0  0  0  0  0  0  0  0
    0.7738   -1.6721    0.0000 C   0  0  0  0  0  0  0  0  0  0  0  0
    0.4436   -2.4042    0.0000 C   0  0  0  0  0  0  0  0  0  0  0  0
   -0.3606   -2.4200    0.0000 C   0  0  0  0  0  0  0  0  0  0  0  0
   -0.7223   -1.7015    0.0000 C   0  0  0  0  0  0  0  0  0  0  0  0
    2.2762    0.7949    0.0000 C   0  0  0  0  0  0  0  0  0  0  0  0
    3.0364    0.4742    0.0000 C   0  0  0  0  0  0  0  0  0  0  0  0
    3.1387   -0.3444    0.0000 C   0  0  0  0  0  0  0  0  0  0  0  0
    2.4809   -0.8424    0.0000 C   0  0  0  0  0  0  0  0  0  0  0  0
   -2.4619   -0.9396    0.0000 C   0  0  0  0  0  0  0  0  0  0  0  0
   -3.1387   -0.4679    0.0000 C   0  0  0  0  0  0  0  0  0  0  0  0
   -3.0686    0.3542    0.0000 C   0  0  0  0  0  0  0  0  0  0  0  0
   -2.3217    0.7045    0.0000 C   0  0  0  0  0  0  0  0  0  0  0  0
    0.0459   -1.9056    0.0000 O   0  0  0  0  0  0  0  0  0  0  0  0
   -1.5028    2.1615    0.0000 O   0  0  0  0  0  0  0  0  0  0  0  0
    1.4007    2.2186    0.0000 O   0  0  0  0  0  0  0  0  0  0  0  0
  1  2  1  0      
  2  3  1  0      
  3  4  1  0      
  4  5  1  0      
  5  6  2  0      
  6  7  1  0      
  7  8  1  0      
  8  9  1  0      
  9 10  1  0      
 10 11  1  0      
  7 11  2  0      
 11 12  1  0      
  4 12  2  0      
  1 12  1  0      
 13 14  1  0      
 14 15  1  0      
 15  5  1  0      
 13  6  1  0      
 16 17  1  0      
 17 18  1  0      
 18 19  1  0      
 19 10  1  0      
 16  1  1  0      
 20 21  1  0      
 21 22  2  0      
 22 23  1  0      
 23  2  2  0      
 20  3  2  0      
 24 25  1  0      
 25 26  2  0      
 26 27  1  0      
 27  8  2  0      
 24  9  2  0      
 16 28  1  0      
 19 28  1  0      
 13 29  2  0      
 15 30  2  0      
M  END

>  <RackCode>
HYCPK72334

>  <Cat. No.>
HY-107407

>  <Product Name>
SB-218078

>  <ROW>
C

>  <COLUMN>
17

>  <CAS No.>
135897-06-2

>  <MWt>
393.39

>  <Target>
Apoptosis; CDK; Checkpoint Kinase (Chk); PKC

>  <Saltdate>
Free Base

>  <Smiles>
O=C1NC(C(C2=C3N(C4CCC5O4)C6=CC=CC=C62)=C1C7=C3N5C8=CC=CC=C78)=O

>  <Solvent>
DMSO Solution

>  <Batch No.>
392222

>  <Quantity>
10mM  * 50uL

>  <Pathway>
Apoptosis; Cell Cycle/DNA Damage; Epigenetics; TGF-beta/Smad

>  <Synonyms>


>  <Formula>
C24H15N3O3

>  <Research_Area>
Cancer

>  <Clinical_Information>
No Development Reported

>  <SUPPLIER>
MedChemExpress

$$$$
Untitled Document
  ChemDraw11152116342D

 30 32  0  0  0  0  0  0  0  0999 V2000
   -2.1434    0.0000    0.0000 C   0  0  0  0  0  0  0  0  0  0  0  0
   -2.8579   -0.4125    0.0000 N   0  0  0  0  0  0  0  0  0  0  0  0
   -1.4289    0.4125    0.0000 C   0  0  0  0  0  0  0  0  0  0  0  0
   -0.7145    0.0000    0.0000 C   0  0  0  0  0  0  0  0  0  0  0  0
   -0.0000    0.4125    0.0000 N   0  0  0  0  0  0  0  0  0  0  0  0
   -0.0000    1.2375    0.0000 C   0  0  0  0  0  0  0  0  0  0  0  0
    0.7145    1.6500    0.0000 S   0  0  0  0  0  0  0  0  0  0  0  0
    1.4289    1.2375    0.0000 C   0  0  0  0  0  0  0  0  0  0  0  0
    2.1434    1.6500    0.0000 C   0  0  0  0  0  0  0  0  0  0  0  0
    2.8579    1.2375    0.0000 N   0  0  0  0  0  0  0  0  0  0  0  0
    2.1434    2.4750    0.0000 O   0  0  0  0  0  0  0  0  0  0  0  0
    1.4289    0.4125    0.0000 C   0  0  0  0  0  0  0  0  0  0  0  0
    2.1434    0.0000    0.0000 C   0  0  0  0  0  0  0  0  0  0  0  0
    2.1434   -0.8250    0.0000 C   0  0  0  0  0  0  0  0  0  0  0  0
    1.4289   -1.2375    0.0000 C   0  0  0  0  0  0  0  0  0  0  0  0
    0.7145   -0.8250    0.0000 C   0  0  0  0  0  0  0  0  0  0  0  0
    0.7145    0.0000    0.0000 C   0  0  0  0  0  0  0  0  0  0  0  0
   -0.7145    1.6500    0.0000 C   0  0  0  0  0  0  0  0  0  0  0  0
   -0.7145    2.4750    0.0000 C   0  0  0  0  0  0  0  0  0  0  0  0
   -0.7145    3.3000    0.0000 N   0  0  0  0  0  0  0  0  0  0  0  0
   -1.4289    1.2375    0.0000 C   0  0  0  0  0  0  0  0  0  0  0  0
   -2.1434    1.6500    0.0000 C   0  0  0  0  0  0  0  0  0  0  0  0
   -2.8579    1.2375    0.0000 C   0  0  0  0  0  0  0  0  0  0  0  0
   -0.7145   -0.8250    0.0000 N   0  0  0  0  0  0  0  0  0  0  0  0
   -0.0000   -1.2375    0.0000 C   0  0  0  0  0  0  0  0  0  0  0  0
   -0.0000   -2.0625    0.0000 C   0  0  0  0  0  0  0  0  0  0  0  0
   -0.7145   -2.4750    0.0000 C   0  0  0  0  0  0  0  0  0  0  0  0
   -0.7145   -3.3000    0.0000 N   0  0  0  0  0  0  0  0  0  0  0  0
   -1.4289   -2.0625    0.0000 C   0  0  0  0  0  0  0  0  0  0  0  0
   -1.4289   -1.2375    0.0000 C   0  0  0  0  0  0  0  0  0  0  0  0
  1  2  3  0      
  1  3  1  0      
  3  4  2  0      
  4  5  1  0      
  5  6  2  0      
  6  7  1  0      
  7  8  1  0      
  8  9  1  0      
  9 10  1  0      
  9 11  2  0      
  8 12  1  1      
 12 13  2  0      
 13 14  1  0      
 14 15  2  0      
 15 16  1  0      
 16 17  2  0      
 12 17  1  0      
  6 18  1  0      
 18 19  1  0      
 19 20  3  0      
 18 21  2  0      
  3 21  1  0      
 21 22  1  0      
 22 23  1  0      
  4 24  1  0      
 24 25  1  0      
 25 26  1  0      
 26 27  1  0      
 27 28  1  0      
 27 29  1  0      
 29 30  1  0      
 24 30  1  0      
M  END

>  <RackCode>
HYCPK72334

>  <Cat. No.>
HY-139664A

>  <Product Name>
(R)-GSK-3685032

>  <ROW>
D

>  <COLUMN>
17

>  <CAS No.>
2170140-50-6

>  <MWt>
420.53

>  <Target>
DNA Methyltransferase

>  <Saltdate>


>  <Smiles>
N#CC1=C(N2CCC(CC2)N)N=C(C(C#N)=C1CC)S[C@H](C3=CC=CC=C3)C(N)=O

>  <Solvent>
DMSO Solution

>  <Batch No.>
139948

>  <Quantity>
10mM  * 50uL

>  <Pathway>
Epigenetics

>  <Synonyms>


>  <Formula>
C22H24N6OS

>  <Research_Area>
Cancer

>  <Clinical_Information>
No Development Reported

>  <SUPPLIER>
MedChemExpress

$$$$
Untitled Document
  ChemDraw05101917272D

 31 35  0  0  0  0  0  0  0  0999 V2000
    1.3805   -0.9867    0.0000 C   0  0  0  0  0  0  0  0  0  0  0  0
    1.6354   -1.7713    0.0000 C   0  0  0  0  0  0  0  0  0  0  0  0
    2.4200   -2.0263    0.0000 N   0  0  0  0  0  0  0  0  0  0  0  0
    2.4200   -2.8513    0.0000 N   0  0  0  0  0  0  0  0  0  0  0  0
    3.0875   -3.3362    0.0000 C   0  0  0  0  0  0  0  0  0  0  0  0
    1.6354   -3.1062    0.0000 C   0  0  0  0  0  0  0  0  0  0  0  0
    1.1505   -2.4388    0.0000 C   0  0  0  0  0  0  0  0  0  0  0  0
    0.3255   -2.4388    0.0000 C   0  0  0  0  0  0  0  0  0  0  0  0
   -0.1594   -1.7713    0.0000 N   0  0  0  0  0  0  0  0  0  0  0  0
   -0.9441   -2.0263    0.0000 C   0  0  0  0  0  0  0  0  0  0  0  0
   -1.6585   -1.6138    0.0000 C   0  0  0  0  0  0  0  0  0  0  0  0
   -1.6585   -0.7888    0.0000 N   0  0  0  0  0  0  0  0  0  0  0  0
   -2.3730   -0.3763    0.0000 C   0  0  0  0  0  0  0  0  0  0  0  0
   -2.3730    0.4487    0.0000 C   0  0  0  0  0  0  0  0  0  0  0  0
   -1.6585    0.8612    0.0000 N   0  0  0  0  0  0  0  0  0  0  0  0
   -1.6585    1.6862    0.0000 C   0  0  0  0  0  0  0  0  0  0  0  0
   -0.9441    2.0987    0.0000 C   0  0  0  0  0  0  0  0  0  0  0  0
   -0.9441    2.9237    0.0000 C   0  0  0  0  0  0  0  0  0  0  0  0
   -0.2296    3.3362    0.0000 C   0  0  0  0  0  0  0  0  0  0  0  0
    0.4849    2.9237    0.0000 C   0  0  0  0  0  0  0  0  0  0  0  0
    1.1994    3.3362    0.0000 Cl  0  0  0  0  0  0  0  0  0  0  0  0
    0.4849    2.0987    0.0000 C   0  0  0  0  0  0  0  0  0  0  0  0
   -0.2296    1.6862    0.0000 C   0  0  0  0  0  0  0  0  0  0  0  0
   -0.9441    0.4487    0.0000 C   0  0  0  0  0  0  0  0  0  0  0  0
   -0.9441   -0.3763    0.0000 C   0  0  0  0  0  0  0  0  0  0  0  0
   -2.3730   -2.0263    0.0000 C   0  0  0  0  0  0  0  0  0  0  0  0
   -3.0875   -1.6138    0.0000 Cl  0  0  0  0  0  0  0  0  0  0  0  0
   -2.3730   -2.8513    0.0000 C   0  0  0  0  0  0  0  0  0  0  0  0
   -1.6585   -3.2638    0.0000 N   0  0  0  0  0  0  0  0  0  0  0  0
   -0.9441   -2.8513    0.0000 C   0  0  0  0  0  0  0  0  0  0  0  0
   -0.1594   -3.1062    0.0000 N   0  0  0  0  0  0  0  0  0  0  0  0
  1  2  1  0      
  2  3  2  0      
  3  4  1  0      
  4  5  1  0      
  4  6  1  0      
  6  7  2  0      
  2  7  1  0      
  7  8  1  0      
  8  9  2  0      
  9 10  1  0      
 10 11  2  0      
 11 12  1  0      
 12 13  1  0      
 13 14  1  0      
 14 15  1  0      
 15 16  1  0      
 16 17  1  0      
 17 18  2  0      
 18 19  1  0      
 19 20  2  0      
 20 21  1  0      
 20 22  1  0      
 22 23  2  0      
 17 23  1  0      
 15 24  1  0      
 24 25  1  0      
 12 25  1  0      
 11 26  1  0      
 26 27  1  0      
 26 28  2  0      
 28 29  1  0      
 29 30  2  0      
 10 30  1  0      
 30 31  1  0      
  8 31  1  0      
M  END

>  <RackCode>
HYCPK72334

>  <Cat. No.>
HY-18161

>  <Product Name>
CCT241736

>  <ROW>
E

>  <COLUMN>
17

>  <CAS No.>
1402709-93-6

>  <MWt>
456.37

>  <Target>
Aurora Kinase; FLT3

>  <Saltdate>
Free Base

>  <Smiles>
CC1=NN(C)C=C1C2=NC3=C(N4CCN(CC5=CC=C(Cl)C=C5)CC4)C(Cl)=CN=C3N2

>  <Solvent>
DMSO Solution

>  <Batch No.>
32487

>  <Quantity>
10mM  * 50uL

>  <Pathway>
Cell Cycle/DNA Damage; Epigenetics; Protein Tyrosine Kinase/RTK

>  <Synonyms>


>  <Formula>
C22H23Cl2N7

>  <Research_Area>
Cancer

>  <Clinical_Information>
No Development Reported

>  <SUPPLIER>
MedChemExpress

$$$$
Untitled Document
  ChemDraw02182215502D

 47 49  0  0  0  0  0  0  0  0999 V2000
   -4.2867   -1.0739    0.0000 C   0  0  0  0  0  0  0  0  0  0  0  0
   -4.2867   -0.2489    0.0000 C   0  0  0  0  0  0  0  0  0  0  0  0
   -3.5723    0.1636    0.0000 N   0  0  0  0  0  0  0  0  0  0  0  0
   -2.8578   -0.2489    0.0000 C   0  0  0  0  0  0  0  0  0  0  0  0
   -2.1433    0.1636    0.0000 C   0  0  0  0  0  0  0  0  0  0  0  0
   -2.1433    0.9886    0.0000 N   0  0  0  0  0  0  0  0  0  0  0  0
   -1.4289    1.4011    0.0000 C   0  0  0  0  0  0  0  0  0  0  0  0
   -0.7145    0.9886    0.0000 O   0  0  0  0  0  0  0  0  0  0  0  0
   -0.0000    1.4011    0.0000 C   0  0  0  0  0  0  0  0  0  0  0  0
   -0.0000    2.2260    0.0000 C   0  0  0  0  0  0  0  0  0  0  0  0
   -0.7145    2.6385    0.0000 C   0  0  0  0  0  0  0  0  0  0  0  0
   -0.7145    3.4635    0.0000 C   0  0  0  0  0  0  0  0  0  0  0  0
   -0.0000    3.8760    0.0000 C   0  0  0  0  0  0  0  0  0  0  0  0
    0.7145    3.4635    0.0000 C   0  0  0  0  0  0  0  0  0  0  0  0
    0.7145    2.6385    0.0000 C   0  0  0  0  0  0  0  0  0  0  0  0
   -1.4289    2.2260    0.0000 O   0  0  0  0  0  0  0  0  0  0  0  0
   -1.4289   -0.2489    0.0000 C   0  0  0  0  0  0  0  0  0  0  0  0
   -0.7145    0.1636    0.0000 C   0  0  0  0  0  0  0  0  0  0  0  0
   -0.0000   -0.2489    0.0000 C   0  0  0  0  0  0  0  0  0  0  0  0
    0.7145    0.1636    0.0000 C   0  0  0  0  0  0  0  0  0  0  0  0
    1.4289   -0.2489    0.0000 N   0  0  0  0  0  0  0  0  0  0  0  0
    2.1433    0.1636    0.0000 C   0  0  0  0  0  0  0  0  0  0  0  0
    2.8578   -0.2489    0.0000 N   0  0  0  0  0  0  0  0  0  0  0  0
    3.5723    0.1636    0.0000 C   0  0  0  0  0  0  0  0  0  0  0  0
    4.2867   -0.2489    0.0000 C   0  0  0  0  0  0  0  0  0  0  0  0
    5.0012    0.1636    0.0000 C   0  0  0  0  0  0  0  0  0  0  0  0
    5.7156   -0.2489    0.0000 O   0  0  0  0  0  0  0  0  0  0  0  0
    6.4300    0.1636    0.0000 C   0  0  0  0  0  0  0  0  0  0  0  0
    7.1445   -0.2489    0.0000 C   0  0  0  0  0  0  0  0  0  0  0  0
    5.0012    0.9886    0.0000 O   0  0  0  0  0  0  0  0  0  0  0  0
    2.1433    0.9886    0.0000 S   0  0  0  0  0  0  0  0  0  0  0  0
   -2.8578   -1.0739    0.0000 O   0  0  0  0  0  0  0  0  0  0  0  0
   -5.0012    0.1636    0.0000 C   0  0  0  0  0  0  0  0  0  0  0  0
   -5.7156   -0.2489    0.0000 N   0  0  0  0  0  0  0  0  0  0  0  0
   -6.4300    0.1636    0.0000 C   0  0  0  0  0  0  0  0  0  0  0  0
   -6.4300    0.9886    0.0000 C   0  0  0  0  0  0  0  0  0  0  0  0
   -7.1445   -0.2489    0.0000 C   0  0  0  0  0  0  0  0  0  0  0  0
   -5.0012    0.9886    0.0000 O   0  0  0  0  0  0  0  0  0  0  0  0
   -5.0012   -1.4864    0.0000 C   0  0  0  0  0  0  0  0  0  0  0  0
   -5.0874   -2.3068    0.0000 C   0  0  0  0  0  0  0  0  0  0  0  0
   -5.8943   -2.4783    0.0000 C   0  0  0  0  0  0  0  0  0  0  0  0
   -6.3068   -1.7639    0.0000 N   0  0  0  0  0  0  0  0  0  0  0  0
   -5.7548   -1.1508    0.0000 C   0  0  0  0  0  0  0  0  0  0  0  0
   -6.1492   -3.2629    0.0000 C   0  0  0  0  0  0  0  0  0  0  0  0
   -5.5973   -3.8760    0.0000 C   0  0  0  0  0  0  0  0  0  0  0  0
   -4.7903   -3.7045    0.0000 C   0  0  0  0  0  0  0  0  0  0  0  0
   -4.5354   -2.9199    0.0000 C   0  0  0  0  0  0  0  0  0  0  0  0
  2  1  1  1      
  2  3  1  0      
  3  4  1  0      
  4  5  1  0      
  5  6  1  1      
  6  7  1  0      
  7  8  1  0      
  8  9  1  0      
  9 10  1  0      
 10 11  2  0      
 11 12  1  0      
 12 13  2  0      
 13 14  1  0      
 14 15  2  0      
 10 15  1  0      
  7 16  2  0      
  5 17  1  0      
 17 18  1  0      
 18 19  1  0      
 19 20  1  0      
 20 21  1  0      
 21 22  1  0      
 22 23  1  0      
 23 24  1  0      
 24 25  1  0      
 25 26  1  0      
 26 27  1  0      
 27 28  1  0      
 28 29  1  0      
 26 30  2  0      
 22 31  2  0      
  4 32  2  0      
  2 33  1  0      
 33 34  1  0      
 34 35  1  0      
 35 36  1  0      
 35 37  1  0      
 33 38  2  0      
  1 39  1  0      
 39 40  1  0      
 40 41  1  0      
 41 42  1  0      
 42 43  1  0      
 39 43  2  0      
 41 44  2  0      
 44 45  1  0      
 45 46  2  0      
 46 47  1  0      
 40 47  2  0      
M  END

>  <RackCode>
HYCPK72334

>  <Cat. No.>
HY-145651

>  <Product Name>
Et-29

>  <ROW>
F

>  <COLUMN>
17

>  <CAS No.>
2166487-23-4

>  <MWt>
666.83

>  <Target>
Sirtuin

>  <Saltdate>


>  <Smiles>
O=C(OCC1=CC=CC=C1)N[C@@H](CCCCNC(NCCC(OCC)=O)=S)C(N[C@H](C(NC(C)C)=O)CC2=CNC3=CC=CC=C23)=O

>  <Solvent>
DMSO Solution

>  <Batch No.>
277655

>  <Quantity>
10mM  * 50uL

>  <Pathway>
Cell Cycle/DNA Damage; Epigenetics

>  <Synonyms>


>  <Formula>
C34H46N6O6S

>  <Research_Area>
Cancer

>  <Clinical_Information>
No Development Reported

>  <SUPPLIER>
MedChemExpress

$$$$
Untitled Document
  ChemDraw03261913342D

 64 71  0  0  0  0  0  0  0  0999 V2000
   -2.8875    1.4289    0.0000 C   0  0  0  0  0  0  0  0  0  0  0  0
   -2.0625    1.4289    0.0000 C   0  0  0  0  0  0  0  0  0  0  0  0
   -1.6500    0.7145    0.0000 C   0  0  0  0  0  0  0  0  0  0  0  0
   -0.8250    0.7145    0.0000 C   0  0  0  0  0  0  0  0  0  0  0  0
   -0.4125    0.0000    0.0000 C   0  0  0  0  0  0  0  0  0  0  0  0
    0.4125    0.0000    0.0000 C   0  0  0  0  0  0  0  0  0  0  0  0
    0.8250   -0.7145    0.0000 C   0  0  0  0  0  0  0  0  0  0  0  0
    1.6500   -0.7145    0.0000 C   0  0  0  0  0  0  0  0  0  0  0  0
    2.0625   -1.4289    0.0000 C   0  0  0  0  0  0  0  0  0  0  0  0
    2.8875   -1.4289    0.0000 C   0  0  0  0  0  0  0  0  0  0  0  0
   -4.1250    2.1434    0.0000 C   0  0  0  0  0  0  0  0  0  0  0  0
   -4.5375    2.8579    0.0000 C   0  0  0  0  0  0  0  0  0  0  0  0
   -4.5375    1.4289    0.0000 O   0  0  0  0  0  0  0  0  0  0  0  0
   -3.3000    2.1434    0.0000 N   0  0  0  0  0  0  0  0  0  0  0  0
   -6.5248    3.7848    0.0000 N   0  0  0  0  0  0  0  0  0  0  0  0
   -5.7205    3.6012    0.0000 C   0  0  0  0  0  0  0  0  0  0  0  0
   -5.3625    2.8579    0.0000 C   0  0  0  0  0  0  0  0  0  0  0  0
   -5.7205    2.1146    0.0000 N   0  0  0  0  0  0  0  0  0  0  0  0
   -6.5248    1.9310    0.0000 C   0  0  0  0  0  0  0  0  0  0  0  0
   -7.1698    2.4454    0.0000 C   0  0  0  0  0  0  0  0  0  0  0  0
   -7.1698    3.2704    0.0000 C   0  0  0  0  0  0  0  0  0  0  0  0
   -5.8401    4.9307    0.0000 N   0  0  0  0  0  0  0  0  0  0  0  0
   -5.2973    4.3094    0.0000 N   0  0  0  0  0  0  0  0  0  0  0  0
   -6.5987    4.6064    0.0000 C   0  0  0  0  0  0  0  0  0  0  0  0
   -7.9544    2.1904    0.0000 C   0  0  0  0  0  0  0  0  0  0  0  0
   -8.4393    2.8579    0.0000 C   0  0  0  0  0  0  0  0  0  0  0  0
   -7.9544    3.5253    0.0000 S   0  0  0  0  0  0  0  0  0  0  0  0
   -7.3132    5.0189    0.0000 C   0  0  0  0  0  0  0  0  0  0  0  0
   -8.2093    1.4058    0.0000 C   0  0  0  0  0  0  0  0  0  0  0  0
   -9.2643    2.8579    0.0000 C   0  0  0  0  0  0  0  0  0  0  0  0
   -6.7084    1.1267    0.0000 C   0  0  0  0  0  0  0  0  0  0  0  0
   -6.1036    0.5655    0.0000 C   0  0  0  0  0  0  0  0  0  0  0  0
   -6.2872   -0.2388    0.0000 C   0  0  0  0  0  0  0  0  0  0  0  0
   -7.0755   -0.4819    0.0000 C   0  0  0  0  0  0  0  0  0  0  0  0
   -7.6803    0.0792    0.0000 C   0  0  0  0  0  0  0  0  0  0  0  0
   -7.4967    0.8835    0.0000 C   0  0  0  0  0  0  0  0  0  0  0  0
   -7.2591   -1.2863    0.0000 Cl  0  0  0  0  0  0  0  0  0  0  0  0
    4.1250   -2.1434    0.0000 C   0  0  0  0  0  0  0  0  0  0  0  0
    4.5375   -2.8579    0.0000 C   0  0  0  0  0  0  0  0  0  0  0  0
    4.5375   -1.4289    0.0000 O   0  0  0  0  0  0  0  0  0  0  0  0
    3.3000   -2.1434    0.0000 N   0  0  0  0  0  0  0  0  0  0  0  0
    6.5248   -3.7848    0.0000 N   0  0  0  0  0  0  0  0  0  0  0  0
    5.7205   -3.6012    0.0000 C   0  0  0  0  0  0  0  0  0  0  0  0
    5.3625   -2.8579    0.0000 C   0  0  0  0  0  0  0  0  0  0  0  0
    5.7205   -2.1146    0.0000 N   0  0  0  0  0  0  0  0  0  0  0  0
    6.5248   -1.9310    0.0000 C   0  0  0  0  0  0  0  0  0  0  0  0
    7.1698   -2.4454    0.0000 C   0  0  0  0  0  0  0  0  0  0  0  0
    7.1698   -3.2704    0.0000 C   0  0  0  0  0  0  0  0  0  0  0  0
    5.8401   -4.9307    0.0000 N   0  0  0  0  0  0  0  0  0  0  0  0
    5.2973   -4.3094    0.0000 N   0  0  0  0  0  0  0  0  0  0  0  0
    6.5987   -4.6064    0.0000 C   0  0  0  0  0  0  0  0  0  0  0  0
    7.9544   -2.1904    0.0000 C   0  0  0  0  0  0  0  0  0  0  0  0
    8.4393   -2.8579    0.0000 C   0  0  0  0  0  0  0  0  0  0  0  0
    7.9544   -3.5253    0.0000 S   0  0  0  0  0  0  0  0  0  0  0  0
    7.3132   -5.0189    0.0000 C   0  0  0  0  0  0  0  0  0  0  0  0
    8.2093   -1.4058    0.0000 C   0  0  0  0  0  0  0  0  0  0  0  0
    9.2643   -2.8579    0.0000 C   0  0  0  0  0  0  0  0  0  0  0  0
    6.7084   -1.1267    0.0000 C   0  0  0  0  0  0  0  0  0  0  0  0
    6.1036   -0.5655    0.0000 C   0  0  0  0  0  0  0  0  0  0  0  0
    6.2872    0.2388    0.0000 C   0  0  0  0  0  0  0  0  0  0  0  0
    7.0755    0.4819    0.0000 C   0  0  0  0  0  0  0  0  0  0  0  0
    7.6803   -0.0792    0.0000 C   0  0  0  0  0  0  0  0  0  0  0  0
    7.4967   -0.8835    0.0000 C   0  0  0  0  0  0  0  0  0  0  0  0
    7.2591    1.2863    0.0000 Cl  0  0  0  0  0  0  0  0  0  0  0  0
  1  2  1  0      
  2  3  1  0      
  3  4  1  0      
  4  5  1  0      
  5  6  1  0      
  6  7  1  0      
  7  8  1  0      
  8  9  1  0      
  9 10  1  0      
 11 12  1  0      
 11 13  2  0      
 11 14  1  0      
 15 16  1  0      
 16 17  1  0      
 17 18  1  0      
 18 19  2  0      
 19 20  1  0      
 20 21  2  0      
 15 21  1  0      
 22 23  1  0      
 22 24  2  0      
 15 24  1  0      
 16 23  2  0      
 25 26  2  0      
 26 27  1  0      
 20 25  1  0      
 21 27  1  0      
 24 28  1  0      
 25 29  1  0      
 26 30  1  0      
 31 32  1  0      
 32 33  2  0      
 33 34  1  0      
 34 35  2  0      
 35 36  1  0      
 31 36  2  0      
 34 37  1  0      
 19 31  1  0      
 17 12  1  6      
  1 14  1  0      
 38 39  1  0      
 38 40  2  0      
 38 41  1  0      
 42 43  1  0      
 43 44  1  0      
 44 45  1  0      
 45 46  2  0      
 46 47  1  0      
 47 48  2  0      
 42 48  1  0      
 49 50  1  0      
 49 51  2  0      
 42 51  1  0      
 43 50  2  0      
 52 53  2  0      
 53 54  1  0      
 47 52  1  0      
 48 54  1  0      
 51 55  1  0      
 52 56  1  0      
 53 57  1  0      
 58 59  1  0      
 59 60  2  0      
 60 61  1  0      
 61 62  2  0      
 62 63  1  0      
 58 63  2  0      
 61 64  1  0      
 46 58  1  0      
 44 39  1  6      
 10 41  1  0      
M  END

>  <RackCode>
HYCPK72334

>  <Cat. No.>
HY-125232

>  <Product Name>
MS645

>  <ROW>
G

>  <COLUMN>
17

>  <CAS No.>
2250091-96-2

>  <MWt>
938.04

>  <Target>
Epigenetic Reader Domain

>  <Saltdate>
Free Base

>  <Smiles>
O=C(NCCCCCCCCCCNC(C[C@H]1C2=NN=C(C)N2C3=C(C(C)=C(C)S3)C(C4=CC=C(Cl)C=C4)=N1)=O)C[C@H]5C6=NN=C(C)N6C7=C(C(C)=C(C)S7)C(C8=CC=C(Cl)C=C8)=N5

>  <Solvent>
DMSO Solution

>  <Batch No.>
51478

>  <Quantity>
10mM  * 50uL

>  <Pathway>
Epigenetics

>  <Synonyms>


>  <Formula>
C48H54Cl2N10O2S2

>  <Research_Area>
Cancer

>  <Clinical_Information>
No Development Reported

>  <SUPPLIER>
MedChemExpress

$$$$
Untitled Document
  ChemDraw01172410302D

 24 24  0  0  0  0  0  0  0  0999 V2000
   -3.2151   -0.6187    0.0000 C   0  0  0  0  0  0  0  0  0  0  0  0
   -3.2151   -1.4437    0.0000 C   0  0  0  0  0  0  0  0  0  0  0  0
   -2.5006   -1.8563    0.0000 C   0  0  0  0  0  0  0  0  0  0  0  0
   -1.7862   -1.4437    0.0000 C   0  0  0  0  0  0  0  0  0  0  0  0
   -1.7862   -0.6187    0.0000 C   0  0  0  0  0  0  0  0  0  0  0  0
   -2.5006   -0.2062    0.0000 C   0  0  0  0  0  0  0  0  0  0  0  0
   -1.0717   -0.2062    0.0000 O   0  0  0  0  0  0  0  0  0  0  0  0
   -0.3572   -0.6187    0.0000 C   0  0  0  0  0  0  0  0  0  0  0  0
   -0.3572   -1.4437    0.0000 C   0  0  0  0  0  0  0  0  0  0  0  0
    0.3572   -1.8563    0.0000 C   0  0  0  0  0  0  0  0  0  0  0  0
    1.0717   -1.4437    0.0000 C   0  0  0  0  0  0  0  0  0  0  0  0
    1.0717   -0.6187    0.0000 C   0  0  0  0  0  0  0  0  0  0  0  0
    0.3572   -0.2062    0.0000 C   0  0  0  0  0  0  0  0  0  0  0  0
   -2.5006    0.6187    0.0000 Cl  0  0  0  0  0  0  0  0  0  0  0  0
   -3.9296   -0.2062    0.0000 Cl  0  0  0  0  0  0  0  0  0  0  0  0
    0.3572    0.6187    0.0000 C   0  0  0  0  0  0  0  0  0  0  0  0
    1.0717    1.0313    0.0000 N   0  0  0  0  0  0  0  0  0  0  0  0
    1.7862    0.6187    0.0000 C   0  0  0  0  0  0  0  0  0  0  0  0
    1.0717    1.8563    0.0000 C   0  0  0  0  0  0  0  0  0  0  0  0
    2.5006    1.0313    0.0000 C   0  0  0  0  0  0  0  0  0  0  0  0
    3.2151    0.6187    0.0000 N   0  0  0  0  0  0  0  0  0  0  0  0
    3.9296    1.0313    0.0000 C   0  0  0  0  0  0  0  0  0  0  0  0
    2.1867   -1.4660    0.0000 H   0  0  0  0  0  0  0  0  0  0  0  0
    3.0117   -1.4660    0.0000 Cl  0  0  0  0  0  0  0  0  0  0  0  0
  1  2  2  0      
  2  3  1  0      
  3  4  2  0      
  4  5  1  0      
  5  6  2  0      
  6  1  1  0      
  5  7  1  0      
  7  8  1  0      
  8  9  2  0      
  9 10  1  0      
 10 11  2  0      
 11 12  1  0      
 12 13  2  0      
 13  8  1  0      
  6 14  1  0      
  1 15  1  0      
 13 16  1  0      
 16 17  1  0      
 17 18  1  0      
 17 19  1  0      
 18 20  1  0      
 20 21  1  0      
 21 22  1  0      
 23 24  1  0      
M  END

>  <RackCode>
HYCPK72334

>  <Cat. No.>
HY-162003A

>  <Product Name>
DCPT1061 (hydrochloride)

>  <ROW>
H

>  <COLUMN>
17

>  <CAS No.>


>  <MWt>
375.72

>  <Target>
Histone Methyltransferase

>  <Saltdate>
Hydrochloride

>  <Smiles>
ClC1=C(OC2=CC=CC=C2CN(C)CCNC)C=CC=C1Cl.[H]Cl

>  <Solvent>
DMSO Solution

>  <Batch No.>
360364

>  <Quantity>
10mM  * 50uL

>  <Pathway>
Epigenetics

>  <Synonyms>


>  <Formula>
C17H21Cl3N2O

>  <Research_Area>
Cancer

>  <Clinical_Information>
No Development Reported

>  <SUPPLIER>
MedChemExpress

$$$$
Untitled Document
  ChemDraw10121713492D

 20 20  0  0  0  0  0  0  0  0999 V2000
   -3.8849   -0.2041    0.0000 C   0  0  0  0  0  0  0  0  0  0  0  0
   -3.1682    0.2041    0.0000 C   0  0  0  0  0  0  0  0  0  0  0  0
   -2.4514   -0.2041    0.0000 C   0  0  0  0  0  0  0  0  0  0  0  0
   -1.7344    0.2041    0.0000 C   0  0  0  0  0  0  0  0  0  0  0  0
   -1.0177   -0.2041    0.0000 C   0  0  0  0  0  0  0  0  0  0  0  0
   -0.3009    0.2041    0.0000 C   0  0  0  0  0  0  0  0  0  0  0  0
    0.4179   -0.2041    0.0000 C   0  0  0  0  0  0  0  0  0  0  0  0
    1.1347    0.2041    0.0000 C   0  0  0  0  0  0  0  0  0  0  0  0
    1.8517   -0.2041    0.0000 C   0  0  0  0  0  0  0  0  0  0  0  0
    2.5684    0.2041    0.0000 N   0  0  0  0  0  0  0  0  0  0  0  0
    3.2852   -0.2041    0.0000 C   0  0  0  0  0  0  0  0  0  0  0  0
    4.0020    0.2041    0.0000 C   0  0  0  0  0  0  0  0  0  0  0  0
    4.7189   -0.2041    0.0000 C   0  0  0  0  0  0  0  0  0  0  0  0
    5.4357    0.2041    0.0000 O   0  0  0  0  0  0  0  0  0  0  0  0
    4.7189   -1.0345    0.0000 O   0  0  0  0  0  0  0  0  0  0  0  0
    2.5684    1.0345    0.0000 O   0  0  0  0  0  0  0  0  0  0  0  0
    1.8517   -1.0345    0.0000 O   0  0  0  0  0  0  0  0  0  0  0  0
   -4.6017    0.2041    0.0000 C   0  0  0  0  0  0  0  0  0  0  0  0
   -5.4357    0.2041    0.0000 C   0  0  0  0  0  0  0  0  0  0  0  0
   -5.0188    0.9239    0.0000 C   0  0  0  0  0  0  0  0  0  0  0  0
  1  2  1  0      
  1 18  1  0      
  2  3  1  0      
  3  4  1  0      
  4  5  1  0      
  5  6  1  0      
  6  7  1  0      
  7  8  1  0      
  8  9  1  0      
  9 10  1  0      
  9 17  2  0      
 10 11  1  0      
 10 16  1  0      
 11 12  1  0      
 12 13  1  0      
 13 14  1  0      
 13 15  2  0      
 18 19  1  0      
 18 20  1  0      
 19 20  1  0      
M  END

>  <RackCode>
HYCPK72334

>  <Cat. No.>
HY-107573

>  <Product Name>
KDM2/7-IN-1

>  <ROW>
I

>  <COLUMN>
17

>  <CAS No.>
1453071-47-0

>  <MWt>
285.38

>  <Target>
Histone Demethylase

>  <Saltdate>


>  <Smiles>
OC(CCN(O)C(CCCCCCCCC1CC1)=O)=O

>  <Solvent>
DMSO Solution

>  <Batch No.>
315736

>  <Quantity>
10mM  * 50uL

>  <Pathway>
Epigenetics

>  <Synonyms>


>  <Formula>
C15H27NO4

>  <Research_Area>
Cancer

>  <Clinical_Information>
No Development Reported

>  <SUPPLIER>
MedChemExpress

$$$$
Untitled Document
  ChemDraw10122316522D

 33 36  0  0  0  0  0  0  0  0999 V2000
    6.7257    0.4125    0.0000 O   0  0  0  0  0  0  0  0  0  0  0  0
    6.0112    0.0000    0.0000 N   0  0  0  0  0  0  0  0  0  0  0  0
    5.2967    0.4125    0.0000 C   0  0  0  0  0  0  0  0  0  0  0  0
    4.5823    0.0000    0.0000 C   0  0  0  0  0  0  0  0  0  0  0  0
    3.8679    0.4125    0.0000 C   0  0  0  0  0  0  0  0  0  0  0  0
    3.1534    0.0000    0.0000 C   0  0  0  0  0  0  0  0  0  0  0  0
    3.1534   -0.8250    0.0000 C   0  0  0  0  0  0  0  0  0  0  0  0
    2.4389   -1.2375    0.0000 N   0  0  0  0  0  0  0  0  0  0  0  0
    1.7245   -0.8250    0.0000 C   0  0  0  0  0  0  0  0  0  0  0  0
    1.0101   -1.2375    0.0000 N   0  0  0  0  0  0  0  0  0  0  0  0
    0.2956   -0.8250    0.0000 C   0  0  0  0  0  0  0  0  0  0  0  0
   -0.4189   -1.2375    0.0000 N   0  0  0  0  0  0  0  0  0  0  0  0
   -1.1333   -0.8250    0.0000 C   0  0  0  0  0  0  0  0  0  0  0  0
   -1.1333    0.0000    0.0000 C   0  0  0  0  0  0  0  0  0  0  0  0
   -1.8477    0.4125    0.0000 C   0  0  0  0  0  0  0  0  0  0  0  0
   -1.8477   -1.2375    0.0000 C   0  0  0  0  0  0  0  0  0  0  0  0
   -2.5622   -0.8250    0.0000 C   0  0  0  0  0  0  0  0  0  0  0  0
   -2.5622    0.0000    0.0000 C   0  0  0  0  0  0  0  0  0  0  0  0
   -3.2766    0.4125    0.0000 O   0  0  0  0  0  0  0  0  0  0  0  0
   -3.9911    0.0000    0.0000 C   0  0  0  0  0  0  0  0  0  0  0  0
   -4.7056    0.4125    0.0000 C   0  0  0  0  0  0  0  0  0  0  0  0
   -5.4199    0.0000    0.0000 N   0  0  0  0  0  0  0  0  0  0  0  0
   -6.1736    0.3356    0.0000 C   0  0  0  0  0  0  0  0  0  0  0  0
   -6.7257   -0.2775    0.0000 C   0  0  0  0  0  0  0  0  0  0  0  0
   -6.3132   -0.9920    0.0000 C   0  0  0  0  0  0  0  0  0  0  0  0
   -5.5062   -0.8205    0.0000 C   0  0  0  0  0  0  0  0  0  0  0  0
    0.2956    0.0000    0.0000 N   0  0  0  0  0  0  0  0  0  0  0  0
    1.0101    0.4125    0.0000 C   0  0  0  0  0  0  0  0  0  0  0  0
    1.7245    0.0000    0.0000 C   0  0  0  0  0  0  0  0  0  0  0  0
    2.4389    0.4125    0.0000 C   0  0  0  0  0  0  0  0  0  0  0  0
    3.8679   -1.2375    0.0000 C   0  0  0  0  0  0  0  0  0  0  0  0
    4.5823   -0.8250    0.0000 C   0  0  0  0  0  0  0  0  0  0  0  0
    5.2967    1.2375    0.0000 O   0  0  0  0  0  0  0  0  0  0  0  0
  1  2  1  0      
  2  3  1  0      
  3  4  1  0      
  4  5  2  0      
  5  6  1  0      
  6  7  2  0      
  7  8  1  0      
  8  9  1  0      
  9 10  2  0      
 10 11  1  0      
 11 12  1  0      
 12 13  1  0      
 13 14  1  0      
 14 15  2  0      
 13 16  2  0      
 16 17  1  0      
 17 18  2  0      
 15 18  1  0      
 18 19  1  0      
 19 20  1  0      
 20 21  1  0      
 21 22  1  0      
 22 23  1  0      
 23 24  1  0      
 24 25  1  0      
 25 26  1  0      
 22 26  1  0      
 11 27  2  0      
 27 28  1  0      
 28 29  2  0      
  9 29  1  0      
 29 30  1  0      
  7 31  1  0      
 31 32  2  0      
  4 32  1  0      
  3 33  2  0      
M  END

>  <RackCode>
HYCPK72334

>  <Cat. No.>
HY-156273

>  <Product Name>
HDAC/JAK/BRD4-IN-1

>  <ROW>
J

>  <COLUMN>
17

>  <CAS No.>
2755325-84-7

>  <MWt>
448.52

>  <Target>
Apoptosis; Epigenetic Reader Domain; HDAC; JAK

>  <Saltdate>


>  <Smiles>
ONC(C1=CC=C(C=C1)NC2=NC(NC3=CC=C(OCCN4CCCC4)C=C3)=NC=C2C)=O

>  <Solvent>
DMSO Solution

>  <Batch No.>
318272

>  <Quantity>
10mM  * 50uL

>  <Pathway>
Apoptosis; Cell Cycle/DNA Damage; Epigenetics; JAK/STAT Signaling; Protein Tyrosine Kinase/RTK; Stem Cell/Wnt

>  <Synonyms>


>  <Formula>
C24H28N6O3

>  <Research_Area>
Cancer

>  <Clinical_Information>
No Development Reported

>  <SUPPLIER>
MedChemExpress

$$$$
Untitled Document
  ChemDraw03191809412D

 25 28  0  0  0  0  0  0  0  0999 V2000
   -2.8579   -0.4125    0.0000 C   0  0  0  0  0  0  0  0  0  0  0  0
   -2.8579    0.4125    0.0000 N   0  0  0  0  0  0  0  0  0  0  0  0
   -2.1434    0.8250    0.0000 C   0  0  0  0  0  0  0  0  0  0  0  0
   -1.4289    0.4125    0.0000 C   0  0  0  0  0  0  0  0  0  0  0  0
   -1.4289   -0.4125    0.0000 C   0  0  0  0  0  0  0  0  0  0  0  0
   -0.7145   -0.8250    0.0000 C   0  0  0  0  0  0  0  0  0  0  0  0
   -0.7145   -1.6500    0.0000 C   0  0  0  0  0  0  0  0  0  0  0  0
   -1.4289   -2.0625    0.0000 C   0  0  0  0  0  0  0  0  0  0  0  0
   -2.1434   -1.6500    0.0000 C   0  0  0  0  0  0  0  0  0  0  0  0
   -2.1434   -0.8250    0.0000 C   0  0  0  0  0  0  0  0  0  0  0  0
   -0.7145    0.8250    0.0000 C   0  0  0  0  0  0  0  0  0  0  0  0
   -0.7145    1.6500    0.0000 O   0  0  0  0  0  0  0  0  0  0  0  0
   -0.0000    0.4125    0.0000 N   0  0  0  0  0  0  0  0  0  0  0  0
   -3.5724   -0.8250    0.0000 O   0  0  0  0  0  0  0  0  0  0  0  0
   -3.5724    0.8250    0.0000 C   0  0  0  0  0  0  0  0  0  0  0  0
    2.8579    2.0625    0.0000 O   0  0  0  0  0  0  0  0  0  0  0  0
    3.5724    1.6500    0.0000 C   0  0  0  0  0  0  0  0  0  0  0  0
    3.5724    0.8250    0.0000 C   0  0  0  0  0  0  0  0  0  0  0  0
    2.8579    0.4125    0.0000 O   0  0  0  0  0  0  0  0  0  0  0  0
    2.1434    0.8250    0.0000 C   0  0  0  0  0  0  0  0  0  0  0  0
    2.1434    1.6500    0.0000 C   0  0  0  0  0  0  0  0  0  0  0  0
    1.4289    0.4125    0.0000 C   0  0  0  0  0  0  0  0  0  0  0  0
    0.7145    0.8250    0.0000 C   0  0  0  0  0  0  0  0  0  0  0  0
    0.7145    1.6500    0.0000 C   0  0  0  0  0  0  0  0  0  0  0  0
    1.4289    2.0625    0.0000 C   0  0  0  0  0  0  0  0  0  0  0  0
  1  2  1  0      
  2  3  1  0      
  3  4  2  0      
  4  5  1  0      
  5  6  1  0      
  6  7  2  0      
  7  8  1  0      
  8  9  2  0      
  9 10  1  0      
  1 10  1  0      
  5 10  2  0      
 11 12  2  0      
 11 13  1  0      
  4 11  1  0      
  1 14  2  0      
  2 15  1  0      
 16 17  1  0      
 17 18  1  0      
 18 19  1  0      
 19 20  1  0      
 20 21  1  0      
 16 21  1  0      
 22 23  1  0      
 23 24  2  0      
 24 25  1  0      
 21 25  2  0      
 20 22  2  0      
 13 23  1  0      
M  END

>  <RackCode>
HYCPK72334

>  <Cat. No.>
HY-111445

>  <Product Name>
CeMMEC1

>  <ROW>
K

>  <COLUMN>
17

>  <CAS No.>
440662-09-9

>  <MWt>
336.34

>  <Target>
DNA/RNA Synthesis; Epigenetic Reader Domain

>  <Saltdate>
Free Base

>  <Smiles>
O=C(C(C1=C2C=CC=C1)=CN(C)C2=O)NC3=CC=C(OCCO4)C4=C3

>  <Solvent>
DMSO Solution

>  <Batch No.>
29204

>  <Quantity>
10mM  * 50uL

>  <Pathway>
Cell Cycle/DNA Damage; Epigenetics

>  <Synonyms>


>  <Formula>
C19H16N2O4

>  <Research_Area>
Cancer

>  <Clinical_Information>
No Development Reported

>  <SUPPLIER>
MedChemExpress

$$$$
Untitled Document
  ChemDraw04011913112D

 32 36  0  0  0  0  0  0  0  0999 V2000
   -3.4182   -2.0575    0.0000 C   0  0  0  0  0  0  0  0  0  0  0  0
   -3.4182   -2.8825    0.0000 C   0  0  0  0  0  0  0  0  0  0  0  0
   -2.7037   -3.2950    0.0000 C   0  0  0  0  0  0  0  0  0  0  0  0
   -1.9892   -2.8825    0.0000 N   0  0  0  0  0  0  0  0  0  0  0  0
   -1.9892   -2.0575    0.0000 C   0  0  0  0  0  0  0  0  0  0  0  0
   -2.7037   -1.6450    0.0000 C   0  0  0  0  0  0  0  0  0  0  0  0
   -1.2773   -1.6464    0.0000 N   0  0  0  0  0  0  0  0  0  0  0  0
   -0.5628   -2.0589    0.0000 C   0  0  0  0  0  0  0  0  0  0  0  0
    0.1517   -1.6464    0.0000 C   0  0  0  0  0  0  0  0  0  0  0  0
    0.1517   -0.8214    0.0000 C   0  0  0  0  0  0  0  0  0  0  0  0
   -0.5628   -0.4089    0.0000 C   0  0  0  0  0  0  0  0  0  0  0  0
   -1.2773   -0.8214    0.0000 C   0  0  0  0  0  0  0  0  0  0  0  0
   -1.9892   -0.4104    0.0000 O   0  0  0  0  0  0  0  0  0  0  0  0
   -0.5628    0.4132    0.0000 N   0  0  0  0  0  0  0  0  0  0  0  0
    0.1492    0.8243    0.0000 C   0  0  0  0  0  0  0  0  0  0  0  0
    0.8637    0.4118    0.0000 N   0  0  0  0  0  0  0  0  0  0  0  0
    1.5781    0.8243    0.0000 N   0  0  0  0  0  0  0  0  0  0  0  0
    1.5781    1.6493    0.0000 C   0  0  0  0  0  0  0  0  0  0  0  0
    0.8637    2.0618    0.0000 C   0  0  0  0  0  0  0  0  0  0  0  0
    0.1492    1.6493    0.0000 C   0  0  0  0  0  0  0  0  0  0  0  0
    2.3628    0.5693    0.0000 C   0  0  0  0  0  0  0  0  0  0  0  0
    2.8477    1.2368    0.0000 C   0  0  0  0  0  0  0  0  0  0  0  0
    2.3628    1.9042    0.0000 N   0  0  0  0  0  0  0  0  0  0  0  0
    0.8637    2.8839    0.0000 N   0  0  0  0  0  0  0  0  0  0  0  0
    0.1517    3.2950    0.0000 C   0  0  0  0  0  0  0  0  0  0  0  0
    2.6168   -0.2126    0.0000 C   0  0  0  0  0  0  0  0  0  0  0  0
    2.0686   -0.8214    0.0000 N   0  0  0  0  0  0  0  0  0  0  0  0
    3.4182   -0.3829    0.0000 O   0  0  0  0  0  0  0  0  0  0  0  0
    2.3218   -1.6006    0.0000 C   0  0  0  0  0  0  0  0  0  0  0  0
    2.1503   -2.4075    0.0000 C   0  0  0  0  0  0  0  0  0  0  0  0
    2.9349   -2.1526    0.0000 C   0  0  0  0  0  0  0  0  0  0  0  0
    1.6001   -3.0185    0.0000 F   0  0  0  0  0  0  0  0  0  0  0  0
  1  2  2  0      
  2  3  1  0      
  3  4  2  0      
  4  5  1  0      
  5  6  2  0      
  6  1  1  0      
  5  7  1  0      
  7  8  1  0      
  8  9  2  0      
  9 10  1  0      
 10 11  2  0      
 11 12  1  0      
 12  7  1  0      
 12 13  2  0      
 11 14  1  0      
 14 15  1  0      
 15 16  2  0      
 16 17  1  0      
 17 18  1  0      
 18 19  1  0      
 19 20  2  0      
 20 15  1  0      
 17 21  1  0      
 21 22  2  0      
 22 23  1  0      
 23 18  2  0      
 19 24  1  0      
 24 25  1  0      
 21 26  1  0      
 26 27  1  0      
 26 28  2  0      
 29 27  1  6      
 29 30  1  0      
 30 31  1  0      
 31 29  1  0      
 30 32  1  6      
M  END

>  <RackCode>
HYCPK72334

>  <Cat. No.>
HY-111745

>  <Product Name>
Tyk2-IN-5

>  <ROW>
L

>  <COLUMN>
17

>  <CAS No.>
1797432-62-2

>  <MWt>
434.43

>  <Target>
JAK

>  <Saltdate>
Free Base

>  <Smiles>
O=C1C(NC2=NN3C(C(NC)=C2)=NC=C3C(N[C@H]4[C@@H](F)C4)=O)=CC=CN1C5=CC=CC=N5

>  <Solvent>
DMSO Solution

>  <Batch No.>
43833

>  <Quantity>
10mM  * 50uL

>  <Pathway>
Epigenetics; JAK/STAT Signaling; Protein Tyrosine Kinase/RTK; Stem Cell/Wnt

>  <Synonyms>


>  <Formula>
C21H19FN8O2

>  <Research_Area>
Inflammation/Immunology

>  <Clinical_Information>
No Development Reported

>  <SUPPLIER>
MedChemExpress

$$$$
Untitled Document
  ChemDraw05092310402D

 24 23  0  0  0  0  0  0  0  0999 V2000
    3.9296    1.3753    0.0000 O   0  0  0  0  0  0  0  0  0  0  0  0
    3.9296    0.5503    0.0000 C   0  0  0  0  0  0  0  0  0  0  0  0
    4.6441    0.1378    0.0000 O   0  0  0  0  0  0  0  0  0  0  0  0
    3.2151    0.1378    0.0000 C   0  0  0  0  0  0  0  0  0  0  0  0
    3.2151   -0.6872    0.0000 C   0  0  0  0  0  0  0  0  0  0  0  0
    2.5006   -1.0997    0.0000 C   0  0  0  0  0  0  0  0  0  0  0  0
    1.7862   -0.6872    0.0000 N   0  0  0  0  0  0  0  0  0  0  0  0
    1.7862    0.1378    0.0000 C   0  0  0  0  0  0  0  0  0  0  0  0
    1.0717    0.5503    0.0000 C   0  0  0  0  0  0  0  0  0  0  0  0
    0.3572    0.1378    0.0000 N   0  0  0  0  0  0  0  0  0  0  0  0
   -0.3572    0.5503    0.0000 C   0  0  0  0  0  0  0  0  0  0  0  0
   -1.0717    0.1378    0.0000 C   0  0  0  0  0  0  0  0  0  0  0  0
   -1.7862    0.5503    0.0000 N   0  0  0  0  0  0  0  0  0  0  0  0
   -2.5006    0.1378    0.0000 C   0  0  0  0  0  0  0  0  0  0  0  0
   -3.2151    0.5503    0.0000 C   0  0  0  0  0  0  0  0  0  0  0  0
   -3.9296    0.1378    0.0000 N   0  0  0  0  0  0  0  0  0  0  0  0
   -4.6441    0.5503    0.0000 C   0  0  0  0  0  0  0  0  0  0  0  0
   -3.9296   -0.6872    0.0000 C   0  0  0  0  0  0  0  0  0  0  0  0
   -1.7862    1.3753    0.0000 C   0  0  0  0  0  0  0  0  0  0  0  0
   -2.5006    1.7878    0.0000 C   0  0  0  0  0  0  0  0  0  0  0  0
   -1.0717   -0.6872    0.0000 O   0  0  0  0  0  0  0  0  0  0  0  0
    2.5006    0.5503    0.0000 C   0  0  0  0  0  0  0  0  0  0  0  0
    0.0701   -1.7878    0.0000 H   0  0  0  0  0  0  0  0  0  0  0  0
    0.8951   -1.7878    0.0000 Cl  0  0  0  0  0  0  0  0  0  0  0  0
  1  2  2  0      
  2  3  1  0      
  2  4  1  0      
  4  5  2  0      
  5  6  1  0      
  6  7  2  0      
  7  8  1  0      
  8  9  1  0      
  9 10  1  0      
 10 11  1  0      
 11 12  1  0      
 12 13  1  0      
 13 14  1  0      
 14 15  1  0      
 15 16  1  0      
 16 17  1  0      
 16 18  1  0      
 13 19  1  0      
 19 20  1  0      
 12 21  2  0      
  8 22  2  0      
  4 22  1  0      
 23 24  1  0      
M  END

>  <RackCode>
HYCPK72334

>  <Cat. No.>
HY-119397A

>  <Product Name>
KDM5-C49 (hydrochloride)

>  <ROW>
M

>  <COLUMN>
17

>  <CAS No.>
3026728-26-4

>  <MWt>
344.84

>  <Target>
Histone Demethylase

>  <Saltdate>
Hydrochloride

>  <Smiles>
O=C(C1=CC=NC(CNCC(N(CC)CCN(C)C)=O)=C1)O.[H]Cl

>  <Solvent>
DMSO Solution

>  <Batch No.>
266209

>  <Quantity>
10mM  * 50uL

>  <Pathway>
Epigenetics

>  <Synonyms>
KDOAM-20 (hydrochloride)

>  <Formula>
C15H25ClN4O3

>  <Research_Area>
Cancer

>  <Clinical_Information>
No Development Reported

>  <SUPPLIER>
MedChemExpress

$$$$
Untitled Document
  ChemDraw07082217102D

 25 28  0  0  0  0  0  0  0  0999 V2000
   -2.0637   -0.8250    0.0000 C   0  0  0  0  0  0  0  0  0  0  0  0
   -2.0637    0.0000    0.0000 C   0  0  0  0  0  0  0  0  0  0  0  0
   -1.3492    0.4125    0.0000 C   0  0  0  0  0  0  0  0  0  0  0  0
   -1.3492   -1.2375    0.0000 C   0  0  0  0  0  0  0  0  0  0  0  0
   -0.6348   -0.8250    0.0000 C   0  0  0  0  0  0  0  0  0  0  0  0
    0.0797   -1.2375    0.0000 C   0  0  0  0  0  0  0  0  0  0  0  0
    0.7942   -0.8250    0.0000 C   0  0  0  0  0  0  0  0  0  0  0  0
    0.7942    0.0000    0.0000 C   0  0  0  0  0  0  0  0  0  0  0  0
    1.5086    0.4125    0.0000 C   0  0  0  0  0  0  0  0  0  0  0  0
    2.2933    0.1576    0.0000 C   0  0  0  0  0  0  0  0  0  0  0  0
    2.7782    0.8250    0.0000 C   0  0  0  0  0  0  0  0  0  0  0  0
    2.2933    1.4924    0.0000 C   0  0  0  0  0  0  0  0  0  0  0  0
    1.5086    1.2375    0.0000 C   0  0  0  0  0  0  0  0  0  0  0  0
    1.5086    2.0625    0.0000 C   0  0  0  0  0  0  0  0  0  0  0  0
    0.7942    1.6500    0.0000 C   0  0  0  0  0  0  0  0  0  0  0  0
    0.0797    1.2375    0.0000 C   0  0  0  0  0  0  0  0  0  0  0  0
    0.0797    0.4125    0.0000 C   0  0  0  0  0  0  0  0  0  0  0  0
   -0.6348    0.0000    0.0000 C   0  0  0  0  0  0  0  0  0  0  0  0
   -0.6348    0.8250    0.0000 C   0  0  0  0  0  0  0  0  0  0  0  0
   -2.7782   -1.2375    0.0000 O   0  0  0  0  0  0  0  0  0  0  0  0
   -0.6348   -1.6500    0.0000 O   0  0  0  0  0  0  0  0  0  0  0  0
    0.0797   -2.0625    0.0000 O   0  0  0  0  0  0  0  0  0  0  0  0
    0.0797   -0.4125    0.0000 H   0  0  0  0  0  0  0  0  0  0  0  0
    0.7942    0.8250    0.0000 H   0  0  0  0  0  0  0  0  0  0  0  0
    1.5086   -0.4125    0.0000 H   0  0  0  0  0  0  0  0  0  0  0  0
  1  2  1  0      
  2  3  1  0      
  1  4  1  0      
  4  5  1  0      
  5  6  1  0      
  6  7  1  0      
  7  8  1  0      
  8  9  1  0      
  9 10  1  0      
 10 11  1  0      
 11 12  1  0      
 12 13  1  0      
  9 13  1  0      
 13 14  1  1      
 13 15  1  0      
 15 16  1  0      
 16 17  1  0      
  8 17  1  0      
 17 18  1  0      
  3 18  1  0      
  5 18  1  0      
 18 19  1  1      
  1 20  1  1      
  5 21  1  6      
  6 22  1  1      
 17 23  1  6      
  8 24  1  1      
  9 25  1  6      
M  END

>  <RackCode>
HYCPK72334

>  <Cat. No.>
HY-100206

>  <Product Name>
5¦Á-Androstane-3¦Â,5,6¦Â-triol

>  <ROW>
N

>  <COLUMN>
17

>  <CAS No.>
4725-51-3

>  <MWt>
308.46

>  <Target>
AMPK

>  <Saltdate>


>  <Smiles>
C[C@@]12CCC[C@@]1([H])[C@]3([H])C[C@@H](O)[C@@]4(O)C[C@@H](O)CC[C@]4(C)[C@@]3([H])CC2

>  <Solvent>
DMSO Solution

>  <Batch No.>
425107

>  <Quantity>
10mM  * 50uL

>  <Pathway>
Epigenetics; PI3K/Akt/mTOR

>  <Synonyms>


>  <Formula>
C19H32O3

>  <Research_Area>
Neurological Disease

>  <Clinical_Information>
No Development Reported

>  <SUPPLIER>
MedChemExpress

$$$$
Untitled Document
  ChemDraw08142014482D

 43 44  0  0  0  0  0  0  0  0999 V2000
    4.6441   -3.5062    0.0000 C   0  0  0  0  0  0  0  0  0  0  0  0
    4.6441   -2.6812    0.0000 C   0  0  0  0  0  0  0  0  0  0  0  0
    3.9296   -2.2687    0.0000 C   0  0  0  0  0  0  0  0  0  0  0  0
    3.9296   -1.4437    0.0000 C   0  0  0  0  0  0  0  0  0  0  0  0
    3.2151   -1.0313    0.0000 C   0  0  0  0  0  0  0  0  0  0  0  0
    2.5006   -1.4437    0.0000 C   0  0  0  0  0  0  0  0  0  0  0  0
    1.7862   -1.0313    0.0000 N   0  0  0  0  0  0  0  0  0  0  0  0
    1.0717   -1.4437    0.0000 C   0  0  0  0  0  0  0  0  0  0  0  0
    0.3572   -1.0313    0.0000 C   0  0  0  0  0  0  0  0  0  0  0  0
   -0.3572   -1.4437    0.0000 N   0  0  0  0  0  0  0  0  0  0  0  0
   -1.0717   -1.0313    0.0000 C   0  0  0  0  0  0  0  0  0  0  0  0
   -1.7862   -1.4437    0.0000 C   0  0  0  0  0  0  0  0  0  0  0  0
   -2.5006   -1.0313    0.0000 N   0  0  0  0  0  0  0  0  0  0  0  0
   -3.2151   -1.4437    0.0000 C   0  0  0  0  0  0  0  0  0  0  0  0
   -3.9296   -1.0313    0.0000 C   0  0  0  0  0  0  0  0  0  0  0  0
   -3.9296   -0.2062    0.0000 C   0  0  0  0  0  0  0  0  0  0  0  0
   -4.6441    0.2062    0.0000 C   0  0  0  0  0  0  0  0  0  0  0  0
   -4.6441    1.0313    0.0000 C   0  0  0  0  0  0  0  0  0  0  0  0
   -5.3585    1.4437    0.0000 N   0  0  0  0  0  0  0  0  0  0  0  0
   -5.3585    2.2687    0.0000 C   0  0  0  0  0  0  0  0  0  0  0  0
   -4.6441    2.6812    0.0000 N   0  0  0  0  0  0  0  0  0  0  0  0
   -6.0730    2.6812    0.0000 N   0  0  0  0  0  0  0  0  0  0  0  0
   -4.6441   -1.4437    0.0000 N   0  0  0  0  0  0  0  0  0  0  0  0
   -5.3585   -1.0313    0.0000 C   0  0  0  0  0  0  0  0  0  0  0  0
   -6.0730   -1.4437    0.0000 C   0  0  0  0  0  0  0  0  0  0  0  0
   -5.3585   -0.2062    0.0000 O   0  0  0  0  0  0  0  0  0  0  0  0
   -3.2151   -2.2687    0.0000 O   0  0  0  0  0  0  0  0  0  0  0  0
   -1.0717   -0.2062    0.0000 O   0  0  0  0  0  0  0  0  0  0  0  0
    0.3572   -0.2062    0.0000 C   0  0  0  0  0  0  0  0  0  0  0  0
    1.0717    0.2062    0.0000 C   0  0  0  0  0  0  0  0  0  0  0  0
    1.0717    1.0313    0.0000 C   0  0  0  0  0  0  0  0  0  0  0  0
    1.7862    1.4437    0.0000 C   0  0  0  0  0  0  0  0  0  0  0  0
    1.7862    2.2687    0.0000 N   0  0  0  0  0  0  0  0  0  0  0  0
    2.5006    2.6812    0.0000 C   0  0  0  0  0  0  0  0  0  0  0  0
    3.2151    2.2687    0.0000 C   0  0  0  0  0  0  0  0  0  0  0  0
    2.5006    3.5062    0.0000 O   0  0  0  0  0  0  0  0  0  0  0  0
    1.0717   -2.2687    0.0000 O   0  0  0  0  0  0  0  0  0  0  0  0
    2.5006   -2.2687    0.0000 C   0  0  0  0  0  0  0  0  0  0  0  0
    3.2151   -2.6812    0.0000 C   0  0  0  0  0  0  0  0  0  0  0  0
    4.6441   -1.0313    0.0000 O   0  0  0  0  0  0  0  0  0  0  0  0
    5.3585   -1.4437    0.0000 C   0  0  0  0  0  0  0  0  0  0  0  0
    6.0730   -1.0313    0.0000 O   0  0  0  0  0  0  0  0  0  0  0  0
    5.3585   -2.2687    0.0000 C   0  0  0  0  0  0  0  0  0  0  0  0
  1  2  1  0      
  2  3  1  0      
  3  4  1  0      
  4  5  2  0      
  5  6  1  0      
  6  7  1  0      
  7  8  1  0      
  8  9  1  0      
  9 10  1  0      
 10 11  1  0      
 11 12  1  0      
 12 13  1  0      
 13 14  1  0      
 14 15  1  0      
 15 16  1  1      
 16 17  1  0      
 17 18  1  0      
 18 19  1  0      
 19 20  1  0      
 20 21  2  0      
 20 22  1  0      
 15 23  1  0      
 23 24  1  0      
 24 25  1  0      
 24 26  2  0      
 14 27  2  0      
 11 28  2  0      
  9 29  1  1      
 29 30  1  0      
 30 31  1  0      
 31 32  1  0      
 32 33  1  0      
 33 34  1  0      
 34 35  1  0      
 34 36  2  0      
  8 37  2  0      
  6 38  2  0      
 38 39  1  0      
  3 39  2  0      
  4 40  1  0      
 40 41  1  0      
 41 42  2  0      
 41 43  1  0      
  2 43  2  0      
M  END

>  <RackCode>
HYCPK72334

>  <Cat. No.>
HY-P2462

>  <Product Name>
Ac-Arg-Gly-Lys(Ac)-AMC

>  <ROW>
O

>  <COLUMN>
17

>  <CAS No.>
660846-97-9

>  <MWt>
600.67

>  <Target>
HDAC

>  <Saltdate>


>  <Smiles>
CC(C1=CC=C(NC([C@H](CCCCNC(C)=O)NC(CNC([C@@H](NC(C)=O)CCCNC(N)=N)=O)=O)=O)C=C1O2)=CC2=O

>  <Solvent>
DMSO Solution

>  <Batch No.>
272299

>  <Quantity>
10mM  * 50uL

>  <Pathway>
Cell Cycle/DNA Damage; Epigenetics

>  <Synonyms>


>  <Formula>
C28H40N8O7

>  <Research_Area>
Others

>  <Clinical_Information>
No Development Reported

>  <SUPPLIER>
MedChemExpress

$$$$
Untitled Document
  ChemDraw09261610042D

 22 23  0  0  0  0  0  0  0  0999 V2000
    3.2151    0.8250    0.0000 C   0  0  0  0  0  0  0  0  0  0  0  0
    2.5006    1.2375    0.0000 C   0  0  0  0  0  0  0  0  0  0  0  0
    1.7862    0.8250    0.0000 C   0  0  0  0  0  0  0  0  0  0  0  0
    1.7862    0.0000    0.0000 C   0  0  0  0  0  0  0  0  0  0  0  0
    2.5006   -0.4125    0.0000 C   0  0  0  0  0  0  0  0  0  0  0  0
    3.2151    0.0000    0.0000 C   0  0  0  0  0  0  0  0  0  0  0  0
    3.9296    1.2375    0.0000 O   0  0  0  0  0  0  0  0  0  0  0  0
    3.9296   -0.4125    0.0000 C   0  0  0  0  0  0  0  0  0  0  0  0
    2.5006    2.0625    0.0000 C   0  0  0  0  0  0  0  0  0  0  0  0
    1.0717   -0.4125    0.0000 N   0  0  0  0  0  0  0  0  0  0  0  0
    0.3572    0.0000    0.0000 O   0  0  0  0  0  0  0  0  0  0  0  0
   -0.3572   -0.4125    0.0000 S   0  0  0  0  0  0  0  0  0  0  0  0
   -0.7697    0.3020    0.0000 O   0  0  0  0  0  0  0  0  0  0  0  0
    0.0553   -1.1270    0.0000 O   0  0  0  0  0  0  0  0  0  0  0  0
   -1.0717   -0.8250    0.0000 C   0  0  0  0  0  0  0  0  0  0  0  0
   -1.0717   -1.6500    0.0000 C   0  0  0  0  0  0  0  0  0  0  0  0
   -1.7862   -2.0625    0.0000 C   0  0  0  0  0  0  0  0  0  0  0  0
   -2.5006   -1.6500    0.0000 C   0  0  0  0  0  0  0  0  0  0  0  0
   -2.5006   -0.8250    0.0000 C   0  0  0  0  0  0  0  0  0  0  0  0
   -1.7862   -0.4125    0.0000 C   0  0  0  0  0  0  0  0  0  0  0  0
   -3.2151   -2.0625    0.0000 O   0  0  0  0  0  0  0  0  0  0  0  0
   -3.9296   -1.6500    0.0000 C   0  0  0  0  0  0  0  0  0  0  0  0
  1  2  1  0      
  2  3  2  0      
  3  4  1  0      
  4  5  1  0      
  5  6  2  0      
  1  6  1  0      
  1  7  2  0      
  6  8  1  0      
  2  9  1  0      
 10 11  1  0      
 12 13  2  0      
 12 14  2  0      
 15 16  1  0      
 16 17  2  0      
 17 18  1  0      
 18 19  2  0      
 19 20  1  0      
 15 20  2  0      
 21 22  1  0      
 18 21  1  0      
 12 15  1  0      
 11 12  1  0      
  4 10  2  0      
M  END

>  <RackCode>
HYCPK72334

>  <Cat. No.>
HY-100671

>  <Product Name>
L002

>  <ROW>
P

>  <COLUMN>
17

>  <CAS No.>
321695-57-2

>  <MWt>
321.35

>  <Target>
Histone Acetyltransferase; STAT

>  <Saltdate>
Free Base

>  <Smiles>
O=C1C(C)=C/C(C=C1C)=N\OS(=O)(C2=CC=C(OC)C=C2)=O

>  <Solvent>
DMSO Solution

>  <Batch No.>
57583

>  <Quantity>
10mM  * 50uL

>  <Pathway>
Epigenetics; JAK/STAT Signaling; Stem Cell/Wnt

>  <Synonyms>


>  <Formula>
C15H15NO5S

>  <Research_Area>
Cancer; Inflammation/Immunology; Cardiovascular Disease

>  <Clinical_Information>
No Development Reported

>  <SUPPLIER>
MedChemExpress

$$$$
Untitled Document
  ChemDraw05192210082D

 28 30  0  0  0  0  0  0  0  0999 V2000
   -0.7145    2.4749    0.0000 O   0  0  0  0  0  0  0  0  0  0  0  0
   -0.7145    1.6500    0.0000 C   0  0  0  0  0  0  0  0  0  0  0  0
   -0.0000    1.2375    0.0000 N   0  0  0  0  0  0  0  0  0  0  0  0
   -0.0000    0.4125    0.0000 C   0  0  0  0  0  0  0  0  0  0  0  0
    0.7145    0.0000    0.0000 S   0  0  0  0  0  0  0  0  0  0  0  0
    1.4289    0.4125    0.0000 C   0  0  0  0  0  0  0  0  0  0  0  0
    2.1433    0.0000    0.0000 C   0  0  0  0  0  0  0  0  0  0  0  0
    2.8578    0.4125    0.0000 C   0  0  0  0  0  0  0  0  0  0  0  0
    3.5723    0.0000    0.0000 C   0  0  0  0  0  0  0  0  0  0  0  0
    4.2867    0.4125    0.0000 C   0  0  0  0  0  0  0  0  0  0  0  0
    4.2867    1.2375    0.0000 O   0  0  0  0  0  0  0  0  0  0  0  0
    5.0011    0.0000    0.0000 N   0  0  0  0  0  0  0  0  0  0  0  0
    5.7156    0.4125    0.0000 O   0  0  0  0  0  0  0  0  0  0  0  0
   -0.7145    0.0000    0.0000 N   0  0  0  0  0  0  0  0  0  0  0  0
   -1.4289    0.4125    0.0000 C   0  0  0  0  0  0  0  0  0  0  0  0
   -1.4289    1.2375    0.0000 C   0  0  0  0  0  0  0  0  0  0  0  0
   -2.1433    0.0000    0.0000 C   0  0  0  0  0  0  0  0  0  0  0  0
   -2.8578    0.4125    0.0000 C   0  0  0  0  0  0  0  0  0  0  0  0
   -3.5723    0.0000    0.0000 C   0  0  0  0  0  0  0  0  0  0  0  0
   -3.5723   -0.8250    0.0000 C   0  0  0  0  0  0  0  0  0  0  0  0
   -2.8578   -1.2375    0.0000 C   0  0  0  0  0  0  0  0  0  0  0  0
   -2.1433   -0.8250    0.0000 C   0  0  0  0  0  0  0  0  0  0  0  0
   -4.2867   -1.2375    0.0000 C   0  0  0  0  0  0  0  0  0  0  0  0
   -5.0011   -0.8250    0.0000 C   0  0  0  0  0  0  0  0  0  0  0  0
   -5.7156   -1.2375    0.0000 C   0  0  0  0  0  0  0  0  0  0  0  0
   -5.7156   -2.0624    0.0000 C   0  0  0  0  0  0  0  0  0  0  0  0
   -5.0011   -2.4749    0.0000 C   0  0  0  0  0  0  0  0  0  0  0  0
   -4.2867   -2.0624    0.0000 C   0  0  0  0  0  0  0  0  0  0  0  0
  1  2  2  0      
  2  3  1  0      
  3  4  2  0      
  4  5  1  0      
  5  6  1  0      
  6  7  1  0      
  7  8  1  0      
  8  9  1  0      
  9 10  1  0      
 10 11  2  0      
 10 12  1  0      
 12 13  1  0      
  4 14  1  0      
 14 15  1  0      
 15 16  2  0      
  2 16  1  0      
 15 17  1  0      
 17 18  1  0      
 18 19  2  0      
 19 20  1  0      
 20 21  2  0      
 21 22  1  0      
 17 22  2  0      
 20 23  1  0      
 23 24  1  0      
 24 25  2  0      
 25 26  1  0      
 26 27  2  0      
 27 28  1  0      
 23 28  2  0      
M  END

>  <RackCode>
HYCPK72334

>  <Cat. No.>
HY-110280

>  <Product Name>
MC1742

>  <ROW>
A

>  <COLUMN>
18

>  <CAS No.>
1776116-74-5

>  <MWt>
395.47

>  <Target>
Apoptosis; HDAC

>  <Saltdate>


>  <Smiles>
O=C1N=C(NC(C2=CC=C(C3=CC=CC=C3)C=C2)=C1)SCCCCC(NO)=O

>  <Solvent>
DMSO Solution

>  <Batch No.>
262619

>  <Quantity>
10mM  * 50uL

>  <Pathway>
Apoptosis; Cell Cycle/DNA Damage; Epigenetics

>  <Synonyms>


>  <Formula>
C21H21N3O3S

>  <Research_Area>
Cancer

>  <Clinical_Information>
No Development Reported

>  <SUPPLIER>
MedChemExpress

$$$$
Untitled Document
  ChemDraw09121910142D

 18 20  0  0  0  0  0  0  0  0999 V2000
    1.9840   -0.3135    0.0000 O   0  0  0  0  0  0  0  0  0  0  0  0
    1.1994   -0.5685    0.0000 C   0  0  0  0  0  0  0  0  0  0  0  0
    0.7145    0.0990    0.0000 C   0  0  0  0  0  0  0  0  0  0  0  0
    1.1994    0.7664    0.0000 C   0  0  0  0  0  0  0  0  0  0  0  0
    1.9840    0.5115    0.0000 C   0  0  0  0  0  0  0  0  0  0  0  0
    0.2295    0.7664    0.0000 C   0  0  0  0  0  0  0  0  0  0  0  0
    0.2295   -0.5685    0.0000 C   0  0  0  0  0  0  0  0  0  0  0  0
   -0.5551   -0.3135    0.0000 C   0  0  0  0  0  0  0  0  0  0  0  0
   -1.2695   -0.7260    0.0000 C   0  0  0  0  0  0  0  0  0  0  0  0
   -1.9840   -0.3135    0.0000 C   0  0  0  0  0  0  0  0  0  0  0  0
   -1.9840    0.5115    0.0000 C   0  0  0  0  0  0  0  0  0  0  0  0
   -1.2695    0.9240    0.0000 C   0  0  0  0  0  0  0  0  0  0  0  0
   -0.5551    0.5115    0.0000 C   0  0  0  0  0  0  0  0  0  0  0  0
    0.9445   -1.3531    0.0000 O   0  0  0  0  0  0  0  0  0  0  0  0
    0.9445    1.5510    0.0000 C   0  0  0  0  0  0  0  0  0  0  0  0
   -1.2695   -1.5510    0.0000 C   0  0  0  0  0  0  0  0  0  0  0  0
   -0.4688   -1.1340    0.0000 C   0  0  0  0  0  0  0  0  0  0  0  0
   -0.4688    1.3320    0.0000 H   0  0  0  0  0  0  0  0  0  0  0  0
  1  2  1  0      
  3  2  1  1      
  3  4  1  6      
  4  5  1  0      
  1  5  1  0      
  7  8  1  0      
  8  9  1  0      
  9 10  1  0      
 10 11  1  0      
 11 12  1  0      
 12 13  1  0      
  6 13  1  0      
  8 13  1  0      
  6  3  1  0      
  7  3  1  0      
  2 14  2  0      
  4 15  2  0      
  9 16  1  1      
  8 17  1  1      
 13 18  1  1      
M  END

>  <RackCode>
HYCPK72334

>  <Cat. No.>
HY-N6017

>  <Product Name>
Bakkenolide A

>  <ROW>
B

>  <COLUMN>
18

>  <CAS No.>
19906-72-0

>  <MWt>
234.33

>  <Target>
HDAC

>  <Saltdate>


>  <Smiles>
O=C([C@@]12C[C@@]3([H])CCC[C@H](C)[C@@]3(C)C2)OCC1=C

>  <Solvent>
DMSO Solution

>  <Batch No.>
352105

>  <Quantity>
10mM  * 50uL

>  <Pathway>
Cell Cycle/DNA Damage; Epigenetics

>  <Synonyms>


>  <Formula>
C15H22O2

>  <Research_Area>
Cancer

>  <Clinical_Information>
No Development Reported

>  <SUPPLIER>
MedChemExpress

$$$$
Untitled Document
  ChemDraw03082112402D

 21 23  0  0  0  0  0  0  0  0999 V2000
   -0.3572   -0.2062    0.0000 C   0  0  0  0  0  0  0  0  0  0  0  0
   -0.3572    0.6187    0.0000 C   0  0  0  0  0  0  0  0  0  0  0  0
   -1.0717    1.0313    0.0000 C   0  0  0  0  0  0  0  0  0  0  0  0
   -1.7862    0.6187    0.0000 C   0  0  0  0  0  0  0  0  0  0  0  0
   -1.7862   -0.2062    0.0000 C   0  0  0  0  0  0  0  0  0  0  0  0
   -1.0717   -0.6187    0.0000 O   0  0  0  0  0  0  0  0  0  0  0  0
   -2.5006   -0.6187    0.0000 C   0  0  0  0  0  0  0  0  0  0  0  0
   -3.2151   -0.2062    0.0000 C   0  0  0  0  0  0  0  0  0  0  0  0
   -3.2151    0.6187    0.0000 C   0  0  0  0  0  0  0  0  0  0  0  0
   -2.5006    1.0313    0.0000 C   0  0  0  0  0  0  0  0  0  0  0  0
   -1.0717    1.8563    0.0000 O   0  0  0  0  0  0  0  0  0  0  0  0
    0.3572   -0.6187    0.0000 C   0  0  0  0  0  0  0  0  0  0  0  0
    1.0717   -0.2062    0.0000 C   0  0  0  0  0  0  0  0  0  0  0  0
    1.7862   -0.6187    0.0000 C   0  0  0  0  0  0  0  0  0  0  0  0
    1.7862   -1.4437    0.0000 C   0  0  0  0  0  0  0  0  0  0  0  0
    1.0717   -1.8563    0.0000 C   0  0  0  0  0  0  0  0  0  0  0  0
    0.3572   -1.4437    0.0000 C   0  0  0  0  0  0  0  0  0  0  0  0
    2.5006   -1.8563    0.0000 O   0  0  0  0  0  0  0  0  0  0  0  0
    3.2151   -1.4437    0.0000 C   0  0  0  0  0  0  0  0  0  0  0  0
    2.5006   -0.2062    0.0000 O   0  0  0  0  0  0  0  0  0  0  0  0
    3.2151   -0.6187    0.0000 C   0  0  0  0  0  0  0  0  0  0  0  0
  1  2  2  0      
  2  3  1  0      
  3  4  1  0      
  4  5  1  0      
  5  6  1  0      
  1  6  1  0      
  7  8  1  0      
  8  9  2  0      
  9 10  1  0      
 10  4  2  0      
  7  5  2  0      
  3 11  2  0      
 12 13  1  0      
 13 14  2  0      
 14 15  1  0      
 15 16  2  0      
 16 17  1  0      
 12 17  2  0      
 18 19  1  0      
 15 18  1  0      
 20 21  1  0      
 14 20  1  0      
  1 12  1  0      
M  END

>  <RackCode>
HYCPK72334

>  <Cat. No.>
HY-N8572

>  <Product Name>
3',4'-Dimethoxyflavone

>  <ROW>
C

>  <COLUMN>
18

>  <CAS No.>
4143-62-8

>  <MWt>
282.29

>  <Target>
Aryl Hydrocarbon Receptor; PARP; Reactive Oxygen Species

>  <Saltdate>


>  <Smiles>
O=C1C=C(C2=CC=C(OC)C(OC)=C2)OC3=CC=CC=C13

>  <Solvent>
DMSO Solution

>  <Batch No.>
204842

>  <Quantity>
10mM  * 50uL

>  <Pathway>
Cell Cycle/DNA Damage; Epigenetics; Immunology/Inflammation; Metabolic Enzyme/Protease; NF-¦ÊB

>  <Synonyms>


>  <Formula>
C17H14O4

>  <Research_Area>
Cancer; Inflammation/Immunology; Neurological Disease; Cardiovascular Disease

>  <Clinical_Information>
No Development Reported

>  <SUPPLIER>
MedChemExpress

$$$$
Untitled Document
  ChemDraw08172317052D

 27 29  0  0  0  0  0  0  0  0999 V2000
    1.8965   -0.7044    0.0000 C   0  0  0  0  0  0  0  0  0  0  0  0
    1.1820   -0.2919    0.0000 C   0  0  0  0  0  0  0  0  0  0  0  0
    0.4675   -0.7044    0.0000 C   0  0  0  0  0  0  0  0  0  0  0  0
    1.8965   -1.5294    0.0000 O   0  0  0  0  0  0  0  0  0  0  0  0
    2.6110   -0.2919    0.0000 N   0  0  0  0  0  0  0  0  0  0  0  0
   -1.5526   -0.0143    0.0000 N   0  0  0  0  0  0  0  0  0  0  0  0
   -1.1401    0.7002    0.0000 N   0  0  0  0  0  0  0  0  0  0  0  0
   -0.3332    0.5286    0.0000 C   0  0  0  0  0  0  0  0  0  0  0  0
   -0.2469   -0.2919    0.0000 C   0  0  0  0  0  0  0  0  0  0  0  0
   -1.0006   -0.6274    0.0000 C   0  0  0  0  0  0  0  0  0  0  0  0
   -2.3731   -0.1006    0.0000 C   0  0  0  0  0  0  0  0  0  0  0  0
   -2.8578    0.5669    0.0000 C   0  0  0  0  0  0  0  0  0  0  0  0
   -3.6783    0.4806    0.0000 C   0  0  0  0  0  0  0  0  0  0  0  0
   -4.1632    1.1481    0.0000 C   0  0  0  0  0  0  0  0  0  0  0  0
   -4.9837    1.0619    0.0000 C   0  0  0  0  0  0  0  0  0  0  0  0
   -5.4686    1.7293    0.0000 C   0  0  0  0  0  0  0  0  0  0  0  0
   -5.1331    2.4830    0.0000 C   0  0  0  0  0  0  0  0  0  0  0  0
   -4.3126    2.5692    0.0000 C   0  0  0  0  0  0  0  0  0  0  0  0
   -3.8277    1.9018    0.0000 C   0  0  0  0  0  0  0  0  0  0  0  0
    3.3252   -0.7044    0.0000 C   0  0  0  0  0  0  0  0  0  0  0  0
    3.3252   -1.5294    0.0000 C   0  0  0  0  0  0  0  0  0  0  0  0
    4.0397   -1.9419    0.0000 C   0  0  0  0  0  0  0  0  0  0  0  0
    4.7542   -1.5294    0.0000 C   0  0  0  0  0  0  0  0  0  0  0  0
    4.7542   -0.7044    0.0000 C   0  0  0  0  0  0  0  0  0  0  0  0
    4.0397   -0.2919    0.0000 C   0  0  0  0  0  0  0  0  0  0  0  0
    5.4686   -1.9419    0.0000 F   0  0  0  0  0  0  0  0  0  0  0  0
    3.3252   -2.5692    0.0000 N   0  0  0  0  0  0  0  0  0  0  0  0
  1  2  1  0      
  2  3  2  0      
  1  4  2  0      
  1  5  1  0      
  6  7  1  0      
  7  8  2  0      
  8  9  1  0      
  9 10  2  0      
  6 10  1  0      
 11 12  1  0      
 12 13  2  0      
 14 15  1  0      
 15 16  2  0      
 16 17  1  0      
 17 18  2  0      
 18 19  1  0      
 14 19  2  0      
 13 14  1  0      
  6 11  1  0      
  3  9  1  0      
 20 21  1  0      
 21 22  2  0      
 22 23  1  0      
 23 24  2  0      
 24 25  1  0      
 20 25  2  0      
 23 26  1  0      
 21 27  1  0      
  5 20  1  0      
M  END

>  <RackCode>
HYCPK72334

>  <Cat. No.>
HY-W019710

>  <Product Name>
(E,E)-RGFP966

>  <ROW>
D

>  <COLUMN>
18

>  <CAS No.>
1396841-57-8

>  <MWt>
362.40

>  <Target>
HDAC

>  <Saltdate>


>  <Smiles>
O=C(NC1=CC=C(F)C=C1N)/C=C/C2=CN(C/C=C/C3=CC=CC=C3)N=C2

>  <Solvent>
DMSO Solution

>  <Batch No.>
353890

>  <Quantity>
10mM  * 50uL

>  <Pathway>
Cell Cycle/DNA Damage; Epigenetics

>  <Synonyms>


>  <Formula>
C21H19FN4O

>  <Research_Area>
Neurological Disease

>  <Clinical_Information>
No Development Reported

>  <SUPPLIER>
MedChemExpress

$$$$
Untitled Document
  ChemDraw09012215552D

 19 21  0  0  0  0  0  0  0  0999 V2000
   -1.1926    3.0946    0.0000 O   0  0  0  0  0  0  0  0  0  0  0  0
   -0.4670    2.7019    0.0000 C   0  0  0  0  0  0  0  0  0  0  0  0
    0.2358    3.1340    0.0000 N   0  0  0  0  0  0  0  0  0  0  0  0
    0.9614    2.7414    0.0000 N   0  0  0  0  0  0  0  0  0  0  0  0
    0.9841    1.9167    0.0000 C   0  0  0  0  0  0  0  0  0  0  0  0
    1.7097    1.5241    0.0000 O   0  0  0  0  0  0  0  0  0  0  0  0
    0.2813    1.4846    0.0000 C   0  0  0  0  0  0  0  0  0  0  0  0
   -0.4443    1.8773    0.0000 C   0  0  0  0  0  0  0  0  0  0  0  0
   -1.1471    1.4452    0.0000 C   0  0  0  0  0  0  0  0  0  0  0  0
   -1.1243    0.6205    0.0000 C   0  0  0  0  0  0  0  0  0  0  0  0
   -0.3987    0.2279    0.0000 C   0  0  0  0  0  0  0  0  0  0  0  0
   -0.3759   -0.5968    0.0000 O   0  0  0  0  0  0  0  0  0  0  0  0
   -1.0787   -1.0289    0.0000 C   0  0  0  0  0  0  0  0  0  0  0  0
   -1.0559   -1.8536    0.0000 C   0  0  0  0  0  0  0  0  0  0  0  0
   -0.3754   -2.3199    0.0000 C   0  0  0  0  0  0  0  0  0  0  0  0
   -0.6085   -3.1112    0.0000 C   0  0  0  0  0  0  0  0  0  0  0  0
   -1.4332   -3.1340    0.0000 S   0  0  0  0  0  0  0  0  0  0  0  0
   -1.7097   -2.3567    0.0000 C   0  0  0  0  0  0  0  0  0  0  0  0
    0.3041    0.6600    0.0000 C   0  0  0  0  0  0  0  0  0  0  0  0
  1  2  2  0      
  2  3  1  0      
  3  4  1  0      
  4  5  1  0      
  5  6  2  0      
  5  7  1  0      
  7  8  2  0      
  2  8  1  0      
  8  9  1  0      
  9 10  2  0      
 10 11  1  0      
 11 12  1  0      
 12 13  1  0      
 13 14  1  0      
 14 15  1  0      
 15 16  2  0      
 16 17  1  0      
 17 18  1  0      
 14 18  2  0      
 11 19  2  0      
  7 19  1  0      
M  END

>  <RackCode>
HYCPK72334

>  <Cat. No.>
HY-143398

>  <Product Name>
PARP10/15-IN-1

>  <ROW>
E

>  <COLUMN>
18

>  <CAS No.>
2892065-01-7

>  <MWt>
274.30

>  <Target>
PARP

>  <Saltdate>


>  <Smiles>
O=C1NNC(C2=C1C=CC(OCC3=CSC=C3)=C2)=O

>  <Solvent>
DMSO Solution

>  <Batch No.>
240586

>  <Quantity>
10mM  * 50uL

>  <Pathway>
Cell Cycle/DNA Damage; Epigenetics

>  <Synonyms>


>  <Formula>
C13H10N2O3S

>  <Research_Area>
Cancer

>  <Clinical_Information>
No Development Reported

>  <SUPPLIER>
MedChemExpress

$$$$
Untitled Document
  ChemDraw11241716382D

 33 37  0  0  0  0  0  0  0  0999 V2000
   -5.3421   -0.8236    0.0000 C   0  0  0  0  0  0  0  0  0  0  0  0
   -5.3421   -1.6486    0.0000 C   0  0  0  0  0  0  0  0  0  0  0  0
   -4.6277   -2.0611    0.0000 C   0  0  0  0  0  0  0  0  0  0  0  0
   -3.9132   -1.6486    0.0000 C   0  0  0  0  0  0  0  0  0  0  0  0
   -3.9132   -0.8236    0.0000 C   0  0  0  0  0  0  0  0  0  0  0  0
   -4.6277   -0.4111    0.0000 C   0  0  0  0  0  0  0  0  0  0  0  0
   -3.2012   -0.4125    0.0000 C   0  0  0  0  0  0  0  0  0  0  0  0
   -2.4867   -0.8250    0.0000 C   0  0  0  0  0  0  0  0  0  0  0  0
   -1.7723   -0.4125    0.0000 C   0  0  0  0  0  0  0  0  0  0  0  0
   -1.7723    0.4125    0.0000 C   0  0  0  0  0  0  0  0  0  0  0  0
   -2.4867    0.8250    0.0000 C   0  0  0  0  0  0  0  0  0  0  0  0
   -3.2012    0.4125    0.0000 C   0  0  0  0  0  0  0  0  0  0  0  0
   -1.0603    0.8236    0.0000 C   0  0  0  0  0  0  0  0  0  0  0  0
   -0.3458    0.4111    0.0000 C   0  0  0  0  0  0  0  0  0  0  0  0
    0.3687    0.8236    0.0000 C   0  0  0  0  0  0  0  0  0  0  0  0
    0.3687    1.6486    0.0000 C   0  0  0  0  0  0  0  0  0  0  0  0
   -0.3458    2.0611    0.0000 C   0  0  0  0  0  0  0  0  0  0  0  0
   -1.0603    1.6486    0.0000 C   0  0  0  0  0  0  0  0  0  0  0  0
    1.1533    0.5686    0.0000 N   0  0  0  0  0  0  0  0  0  0  0  0
    1.6382    1.2361    0.0000 C   0  0  0  0  0  0  0  0  0  0  0  0
    1.1533    1.9035    0.0000 N   0  0  0  0  0  0  0  0  0  0  0  0
   -1.7723    2.0596    0.0000 Cl  0  0  0  0  0  0  0  0  0  0  0  0
    2.4604    1.2361    0.0000 O   0  0  0  0  0  0  0  0  0  0  0  0
    2.8714    0.5241    0.0000 C   0  0  0  0  0  0  0  0  0  0  0  0
    2.4589   -0.1904    0.0000 C   0  0  0  0  0  0  0  0  0  0  0  0
    2.8714   -0.9049    0.0000 C   0  0  0  0  0  0  0  0  0  0  0  0
    3.6964   -0.9049    0.0000 C   0  0  0  0  0  0  0  0  0  0  0  0
    4.1089   -0.1904    0.0000 C   0  0  0  0  0  0  0  0  0  0  0  0
    3.6964    0.5241    0.0000 C   0  0  0  0  0  0  0  0  0  0  0  0
    4.1075   -1.6169    0.0000 C   0  0  0  0  0  0  0  0  0  0  0  0
    4.9311   -0.1904    0.0000 C   0  0  0  0  0  0  0  0  0  0  0  0
    5.3421   -0.9024    0.0000 O   0  0  0  0  0  0  0  0  0  0  0  0
    5.3421    0.5216    0.0000 O   0  0  0  0  0  0  0  0  0  0  0  0
  1  2  2  0      
  2  3  1  0      
  3  4  2  0      
  4  5  1  0      
  5  6  2  0      
  6  1  1  0      
  5  7  1  0      
  7  8  2  0      
  8  9  1  0      
  9 10  2  0      
 10 11  1  0      
 11 12  2  0      
 12  7  1  0      
 10 13  1  0      
 13 14  2  0      
 14 15  1  0      
 15 16  2  0      
 16 17  1  0      
 17 18  2  0      
 18 13  1  0      
 15 19  1  0      
 19 20  1  0      
 20 21  2  0      
 21 16  1  0      
 18 22  1  0      
 20 23  1  0      
 23 24  1  0      
 24 25  2  0      
 25 26  1  0      
 26 27  2  0      
 27 28  1  0      
 28 29  2  0      
 29 24  1  0      
 28 31  1  0      
 27 30  1  0      
 31 32  2  0      
 31 33  1  0      
M  END

>  <RackCode>
HYCPK72334

>  <Cat. No.>
HY-107988

>  <Product Name>
MK-3903

>  <ROW>
F

>  <COLUMN>
18

>  <CAS No.>
1219737-12-8

>  <MWt>
454.90

>  <Target>
AMPK

>  <Saltdate>
Free Acid

>  <Smiles>
ClC1=CC2=C(NC(OC3=CC=C(C)C(C(O)=O)=C3)=N2)C=C1C(C=C4)=CC=C4C5=CC=CC=C5

>  <Solvent>
DMSO Solution

>  <Batch No.>
28412

>  <Quantity>
10mM  * 50uL

>  <Pathway>
Epigenetics; PI3K/Akt/mTOR

>  <Synonyms>


>  <Formula>
C27H19ClN2O3

>  <Research_Area>
Metabolic Disease

>  <Clinical_Information>
No Development Reported

>  <SUPPLIER>
MedChemExpress

$$$$
Untitled Document
  ChemDraw02091709402D

 11 11  0  0  0  0  0  0  0  0999 V2000
   -0.0043   -1.4615    0.0000 C   0  0  0  0  0  0  0  0  0  0  0  0
    1.1270    0.7470    0.0000 C   0  0  0  0  0  0  0  0  0  0  0  0
    0.3020    0.7470    0.0000 C   0  0  0  0  0  0  0  0  0  0  0  0
    0.7145    1.4615    0.0000 C   0  0  0  0  0  0  0  0  0  0  0  0
    1.8414    0.3345    0.0000 N   0  0  0  0  0  0  0  0  0  0  0  0
   -0.4125    0.3345    0.0000 C   0  0  0  0  0  0  0  0  0  0  0  0
   -0.4125   -0.4905    0.0000 C   0  0  0  0  0  0  0  0  0  0  0  0
   -1.1270   -0.9030    0.0000 C   0  0  0  0  0  0  0  0  0  0  0  0
   -1.8414   -0.4905    0.0000 C   0  0  0  0  0  0  0  0  0  0  0  0
   -1.8414    0.3345    0.0000 C   0  0  0  0  0  0  0  0  0  0  0  0
   -1.1270    0.7470    0.0000 C   0  0  0  0  0  0  0  0  0  0  0  0
  2  3  1  0      
  3  4  1  0      
  2  4  1  0      
  2  5  1  1      
  6  7  1  0      
  7  8  2  0      
  8  9  1  0      
  9 10  2  0      
 10 11  1  0      
  6 11  2  0      
  3  6  1  6      
A    1
0.5H2SO4
M  END

>  <RackCode>
HYCPK72334

>  <Cat. No.>
HY-B1496

>  <Product Name>
Tranylcypromine (hemisulfate)

>  <ROW>
G

>  <COLUMN>
18

>  <CAS No.>
13492-01-8

>  <MWt>
182.23

>  <Target>
Histone Demethylase; Monoamine Oxidase

>  <Saltdate>
Sulfate

>  <Smiles>
N[C@H]1[C@H](C2=CC=CC=C2)C1.[0.5H2SO4]

>  <Solvent>
DMSO Solution

>  <Batch No.>
254911

>  <Quantity>
10mM  * 50uL

>  <Pathway>
Epigenetics; Neuronal Signaling

>  <Synonyms>
SKF 385 (hemisulfate)

>  <Formula>
C9H12NO2S0.5

>  <Research_Area>
Neurological Disease; Cancer

>  <Clinical_Information>
Launched

>  <SUPPLIER>
MedChemExpress

$$$$
Untitled Document
  ChemDraw09302210052D

 36 38  0  0  0  0  0  0  0  0999 V2000
   -2.1434    0.3349    0.0000 O   0  0  0  0  0  0  0  0  0  0  0  0
   -2.1434   -0.4901    0.0000 C   0  0  0  0  0  0  0  0  0  0  0  0
   -1.4289   -0.9026    0.0000 N   0  0  0  0  0  0  0  0  0  0  0  0
   -0.7145   -0.4901    0.0000 C   0  0  0  0  0  0  0  0  0  0  0  0
   -0.0000   -0.9026    0.0000 C   0  0  0  0  0  0  0  0  0  0  0  0
    0.7145   -0.4901    0.0000 C   0  0  0  0  0  0  0  0  0  0  0  0
    1.4289   -0.9026    0.0000 C   0  0  0  0  0  0  0  0  0  0  0  0
    2.1434   -0.4901    0.0000 N   0  0  0  0  0  0  0  0  0  0  0  0
    2.8579   -0.9026    0.0000 C   0  0  0  0  0  0  0  0  0  0  0  0
    3.5724   -0.4901    0.0000 C   0  0  0  0  0  0  0  0  0  0  0  0
    4.2868   -0.9026    0.0000 F   0  0  0  0  0  0  0  0  0  0  0  0
    2.8579   -1.7276    0.0000 N   0  0  0  0  0  0  0  0  0  0  0  0
   -0.7145    0.3349    0.0000 C   0  0  0  0  0  0  0  0  0  0  0  0
   -1.3819    0.8198    0.0000 N   0  0  0  0  0  0  0  0  0  0  0  0
   -1.1270    1.6044    0.0000 C   0  0  0  0  0  0  0  0  0  0  0  0
   -0.3020    1.6044    0.0000 C   0  0  0  0  0  0  0  0  0  0  0  0
    0.1105    2.3189    0.0000 C   0  0  0  0  0  0  0  0  0  0  0  0
   -0.3020    3.0333    0.0000 C   0  0  0  0  0  0  0  0  0  0  0  0
   -1.1270    3.0333    0.0000 C   0  0  0  0  0  0  0  0  0  0  0  0
   -1.5395    2.3189    0.0000 C   0  0  0  0  0  0  0  0  0  0  0  0
   -2.3645    2.3189    0.0000 O   0  0  0  0  0  0  0  0  0  0  0  0
   -2.7770    3.0333    0.0000 C   0  0  0  0  0  0  0  0  0  0  0  0
   -0.0470    0.8198    0.0000 N   0  0  0  0  0  0  0  0  0  0  0  0
    0.7376    0.5648    0.0000 C   0  0  0  0  0  0  0  0  0  0  0  0
   -2.8579   -0.9026    0.0000 C   0  0  0  0  0  0  0  0  0  0  0  0
   -2.8579   -1.7276    0.0000 C   0  0  0  0  0  0  0  0  0  0  0  0
   -2.2448   -2.2797    0.0000 C   0  0  0  0  0  0  0  0  0  0  0  0
   -2.5803   -3.0333    0.0000 N   0  0  0  0  0  0  0  0  0  0  0  0
   -3.4008   -2.9471    0.0000 C   0  0  0  0  0  0  0  0  0  0  0  0
   -1.4378   -2.1081    0.0000 O   0  0  0  0  0  0  0  0  0  0  0  0
   -3.5724   -2.1401    0.0000 C   0  0  0  0  0  0  0  0  0  0  0  0
   -4.2868   -1.7276    0.0000 C   0  0  0  0  0  0  0  0  0  0  0  0
   -4.2868   -0.9026    0.0000 C   0  0  0  0  0  0  0  0  0  0  0  0
   -3.5724   -0.4901    0.0000 C   0  0  0  0  0  0  0  0  0  0  0  0
   -0.0071   -2.9651    0.0000 H   0  0  0  0  0  0  0  0  0  0  0  0
    0.8179   -2.9651    0.0000 Cl  0  0  0  0  0  0  0  0  0  0  0  0
  1  2  2  0      
  2  3  1  0      
  3  4  1  0      
  4  5  1  0      
  5  6  1  0      
  6  7  1  0      
  7  8  1  0      
  8  9  1  0      
  9 10  1  0      
 10 11  1  0      
  9 12  2  0      
  4 13  1  6      
 13 14  2  0      
 14 15  1  0      
 15 16  2  0      
 16 17  1  0      
 17 18  2  0      
 18 19  1  0      
 19 20  2  0      
 15 20  1  0      
 20 21  1  0      
 21 22  1  0      
 16 23  1  0      
 13 23  1  0      
 23 24  1  0      
  2 25  1  0      
 25 26  2  0      
 26 27  1  0      
 27 28  1  0      
 28 29  1  0      
 27 30  2  0      
 26 31  1  0      
 29 31  1  0      
 31 32  2  0      
 32 33  1  0      
 33 34  2  0      
 25 34  1  0      
 35 36  1  0      
M  END

>  <RackCode>
HYCPK72334

>  <Cat. No.>
HY-125099A

>  <Product Name>
AFM-30a (hydrochloride)

>  <ROW>
H

>  <COLUMN>
18

>  <CAS No.>


>  <MWt>
502.97

>  <Target>
Protein Arginine Deiminase

>  <Saltdate>
Hydrochloride

>  <Smiles>
O=C(C1=C2C(NCC2=CC=C1)=O)N[C@H](C3=NC4=C(N3C)C=CC=C4OC)CCCNC(CF)=N.[H]Cl

>  <Solvent>
DMSO Solution

>  <Batch No.>
230148

>  <Quantity>
10mM  * 50uL

>  <Pathway>
Epigenetics

>  <Synonyms>


>  <Formula>
C24H28ClFN6O3

>  <Research_Area>
Cancer; Inflammation/Immunology

>  <Clinical_Information>
No Development Reported

>  <SUPPLIER>
MedChemExpress

$$$$
Untitled Document
  ChemDraw03061915592D

 29 30  0  0  0  0  0  0  0  0999 V2000
   -1.0742    2.0532    0.0000 C   0  0  0  0  0  0  0  0  0  0  0  0
   -1.0742    1.2282    0.0000 C   0  0  0  0  0  0  0  0  0  0  0  0
   -0.3597    0.8157    0.0000 C   0  0  0  0  0  0  0  0  0  0  0  0
    0.3548    1.2282    0.0000 C   0  0  0  0  0  0  0  0  0  0  0  0
    0.3548    2.0532    0.0000 C   0  0  0  0  0  0  0  0  0  0  0  0
   -0.3597    2.4657    0.0000 C   0  0  0  0  0  0  0  0  0  0  0  0
    1.0667    0.8171    0.0000 C   0  0  0  0  0  0  0  0  0  0  0  0
    1.7763    1.2268    0.0000 C   0  0  0  0  0  0  0  0  0  0  0  0
    1.0667   -0.0021    0.0000 O   0  0  0  0  0  0  0  0  0  0  0  0
    1.7763    2.0432    0.0000 C   0  0  0  0  0  0  0  0  0  0  0  0
    2.4833    2.4514    0.0000 C   0  0  0  0  0  0  0  0  0  0  0  0
    3.1978    2.0389    0.0000 C   0  0  0  0  0  0  0  0  0  0  0  0
    3.9122    2.4514    0.0000 C   0  0  0  0  0  0  0  0  0  0  0  0
    3.9122    3.2764    0.0000 C   0  0  0  0  0  0  0  0  0  0  0  0
    3.1978    3.6889    0.0000 C   0  0  0  0  0  0  0  0  0  0  0  0
    2.4833    3.2764    0.0000 C   0  0  0  0  0  0  0  0  0  0  0  0
    4.6242    3.6874    0.0000 O   0  0  0  0  0  0  0  0  0  0  0  0
   -1.7862    2.4643    0.0000 O   0  0  0  0  0  0  0  0  0  0  0  0
   -0.3597   -0.0064    0.0000 O   0  0  0  0  0  0  0  0  0  0  0  0
   -1.7862    0.8171    0.0000 C   0  0  0  0  0  0  0  0  0  0  0  0
   -1.7862   -0.0021    0.0000 C   0  0  0  0  0  0  0  0  0  0  0  0
   -2.4957   -0.4118    0.0000 C   0  0  0  0  0  0  0  0  0  0  0  0
   -2.4957   -1.2311    0.0000 C   0  0  0  0  0  0  0  0  0  0  0  0
   -3.2052   -0.0021    0.0000 C   0  0  0  0  0  0  0  0  0  0  0  0
   -3.2052   -1.6407    0.0000 C   0  0  0  0  0  0  0  0  0  0  0  0
   -3.2052   -2.4600    0.0000 C   0  0  0  0  0  0  0  0  0  0  0  0
   -3.9147   -2.8696    0.0000 C   0  0  0  0  0  0  0  0  0  0  0  0
   -3.9147   -3.6889    0.0000 C   0  0  0  0  0  0  0  0  0  0  0  0
   -4.6242   -2.4600    0.0000 C   0  0  0  0  0  0  0  0  0  0  0  0
  1  2  1  0      
  2  3  2  0      
  3  4  1  0      
  4  5  2  0      
  5  6  1  0      
  6  1  2  0      
  4  7  1  0      
  7  8  1  0      
  7  9  2  0      
  8 10  2  0      
 10 11  1  0      
 11 12  1  0      
 12 13  2  0      
 13 14  1  0      
 14 15  2  0      
 15 16  1  0      
 16 11  2  0      
 14 17  1  0      
  1 18  1  0      
  3 19  1  0      
  2 20  1  0      
 20 21  1  0      
 21 22  2  0      
 22 23  1  0      
 22 24  1  0      
 23 25  1  0      
 25 26  1  0      
 26 27  2  0      
 27 28  1  0      
 27 29  1  0      
M  END

>  <RackCode>
HYCPK72334

>  <Cat. No.>
HY-111588

>  <Product Name>
Xanthoangelol

>  <ROW>
I

>  <COLUMN>
18

>  <CAS No.>
62949-76-2

>  <MWt>
392.49

>  <Target>
AMPK; Apoptosis; Bacterial; Monoamine Oxidase

>  <Saltdate>
Free Base

>  <Smiles>
O=C(/C=C/C1=CC=C(O)C=C1)C2=CC=C(O)C(C/C=C(C)/CC/C=C(C)/C)=C2O

>  <Solvent>
DMSO Solution

>  <Batch No.>
220529

>  <Quantity>
10mM  * 50uL

>  <Pathway>
Anti-infection; Apoptosis; Epigenetics; Neuronal Signaling; PI3K/Akt/mTOR

>  <Synonyms>


>  <Formula>
C25H28O4

>  <Research_Area>
Cancer; Infection; Inflammation/Immunology

>  <Clinical_Information>
No Development Reported

>  <SUPPLIER>
MedChemExpress

$$$$
Untitled Document
  ChemDraw12042012522D

 24 26  0  0  0  0  0  0  0  0999 V2000
    1.1270    0.4125    0.0000 C   0  0  0  0  0  0  0  0  0  0  0  0
    1.1270    1.2375    0.0000 C   0  0  0  0  0  0  0  0  0  0  0  0
    0.4125    1.6500    0.0000 C   0  0  0  0  0  0  0  0  0  0  0  0
   -0.3020    1.2375    0.0000 C   0  0  0  0  0  0  0  0  0  0  0  0
   -0.3020    0.4125    0.0000 C   0  0  0  0  0  0  0  0  0  0  0  0
    0.4125    0.0000    0.0000 N   0  0  0  0  0  0  0  0  0  0  0  0
    1.8414    1.6500    0.0000 C   0  0  0  0  0  0  0  0  0  0  0  0
    1.8414    2.4750    0.0000 O   0  0  0  0  0  0  0  0  0  0  0  0
    2.5559    1.2375    0.0000 N   0  0  0  0  0  0  0  0  0  0  0  0
   -1.0164    1.6500    0.0000 C   0  0  0  0  0  0  0  0  0  0  0  0
   -1.0164    2.4750    0.0000 O   0  0  0  0  0  0  0  0  0  0  0  0
   -1.7309    1.2375    0.0000 N   0  0  0  0  0  0  0  0  0  0  0  0
    0.4125   -0.8250    0.0000 C   0  0  0  0  0  0  0  0  0  0  0  0
   -0.3020   -1.2375    0.0000 C   0  0  0  0  0  0  0  0  0  0  0  0
   -0.3020   -2.0625    0.0000 C   0  0  0  0  0  0  0  0  0  0  0  0
   -1.0164   -2.4750    0.0000 C   0  0  0  0  0  0  0  0  0  0  0  0
   -1.7309   -2.0625    0.0000 C   0  0  0  0  0  0  0  0  0  0  0  0
   -1.7309   -1.2375    0.0000 C   0  0  0  0  0  0  0  0  0  0  0  0
   -1.0164   -0.8250    0.0000 C   0  0  0  0  0  0  0  0  0  0  0  0
    1.8414    0.0000    0.0000 O   0  0  0  0  0  0  0  0  0  0  0  0
    3.2704    1.6500    0.0000 C   0  0  0  0  0  0  0  0  0  0  0  0
   -2.4454    1.6500    0.0000 C   0  0  0  0  0  0  0  0  0  0  0  0
   -3.2704    1.6500    0.0000 C   0  0  0  0  0  0  0  0  0  0  0  0
   -2.8579    2.3645    0.0000 C   0  0  0  0  0  0  0  0  0  0  0  0
  1  2  1  0      
  2  3  2  0      
  3  4  1  0      
  4  5  2  0      
  5  6  1  0      
  1  6  1  0      
  7  8  2  0      
  7  9  1  0      
  2  7  1  0      
 10 11  2  0      
 10 12  1  0      
  4 10  1  0      
 14 15  1  0      
 15 16  2  0      
 16 17  1  0      
 17 18  2  0      
 18 19  1  0      
 14 19  2  0      
 13 14  1  0      
  6 13  1  0      
  1 20  2  0      
  9 21  1  0      
 22 23  1  0      
 23 24  1  0      
 22 24  1  0      
 12 22  1  0      
M  END

>  <RackCode>
HYCPK72334

>  <Cat. No.>
HY-137892

>  <Product Name>
GSK620

>  <ROW>
J

>  <COLUMN>
18

>  <CAS No.>
2088410-46-0

>  <MWt>
325.36

>  <Target>
Epigenetic Reader Domain

>  <Saltdate>


>  <Smiles>
O=C(C1=CC(C(NC2CC2)=O)=CN(CC3=CC=CC=C3)C1=O)NC

>  <Solvent>
DMSO Solution

>  <Batch No.>
109488

>  <Quantity>
10mM  * 50uL

>  <Pathway>
Epigenetics

>  <Synonyms>


>  <Formula>
C18H19N3O3

>  <Research_Area>
Inflammation/Immunology

>  <Clinical_Information>
No Development Reported

>  <SUPPLIER>
MedChemExpress

$$$$
Untitled Document
  ChemDraw09021908552D

 26 29  0  0  0  0  0  0  0  0999 V2000
   -0.3572    0.4125    0.0000 C   0  0  0  0  0  0  0  0  0  0  0  0
   -0.3572   -0.4125    0.0000 C   0  0  0  0  0  0  0  0  0  0  0  0
   -1.0717   -0.8250    0.0000 C   0  0  0  0  0  0  0  0  0  0  0  0
   -1.7862   -0.4125    0.0000 C   0  0  0  0  0  0  0  0  0  0  0  0
   -1.7862    0.4125    0.0000 C   0  0  0  0  0  0  0  0  0  0  0  0
   -1.0717    0.8250    0.0000 O   0  0  0  0  0  0  0  0  0  0  0  0
   -2.5006    0.8250    0.0000 C   0  0  0  0  0  0  0  0  0  0  0  0
   -3.2151    0.4125    0.0000 C   0  0  0  0  0  0  0  0  0  0  0  0
   -3.2151   -0.4125    0.0000 C   0  0  0  0  0  0  0  0  0  0  0  0
   -2.5006   -0.8250    0.0000 C   0  0  0  0  0  0  0  0  0  0  0  0
    0.3572    0.8250    0.0000 O   0  0  0  0  0  0  0  0  0  0  0  0
    0.3572   -0.8250    0.0000 O   0  0  0  0  0  0  0  0  0  0  0  0
    3.9296   -0.4125    0.0000 C   0  0  0  0  0  0  0  0  0  0  0  0
    3.9296    0.4125    0.0000 C   0  0  0  0  0  0  0  0  0  0  0  0
    3.2151    0.8250    0.0000 C   0  0  0  0  0  0  0  0  0  0  0  0
    2.5006    0.4125    0.0000 C   0  0  0  0  0  0  0  0  0  0  0  0
    2.5006   -0.4125    0.0000 C   0  0  0  0  0  0  0  0  0  0  0  0
    3.2151   -0.8250    0.0000 O   0  0  0  0  0  0  0  0  0  0  0  0
    1.7862   -0.8250    0.0000 C   0  0  0  0  0  0  0  0  0  0  0  0
    1.0717   -0.4125    0.0000 C   0  0  0  0  0  0  0  0  0  0  0  0
    1.0717    0.4125    0.0000 C   0  0  0  0  0  0  0  0  0  0  0  0
    1.7862    0.8250    0.0000 C   0  0  0  0  0  0  0  0  0  0  0  0
    4.6441   -0.8250    0.0000 O   0  0  0  0  0  0  0  0  0  0  0  0
   -3.9296   -0.8250    0.0000 O   0  0  0  0  0  0  0  0  0  0  0  0
   -4.6441   -0.4125    0.0000 C   0  0  0  0  0  0  0  0  0  0  0  0
   -3.9296    0.8250    0.0000 O   0  0  0  0  0  0  0  0  0  0  0  0
  1  2  1  0      
  2  3  2  0      
  3  4  1  0      
  4  5  1  0      
  5  6  1  0      
  1  6  1  0      
  7  8  1  0      
  8  9  2  0      
  9 10  1  0      
 10  4  2  0      
  7  5  2  0      
  1 11  2  0      
 13 14  1  0      
 14 15  2  0      
 15 16  1  0      
 16 17  1  0      
 17 18  1  0      
 13 18  1  0      
 19 20  1  0      
 20 21  2  0      
 21 22  1  0      
 22 16  2  0      
 19 17  2  0      
 13 23  2  0      
 12 20  1  0      
  2 12  1  0      
 24 25  1  0      
  9 24  1  0      
  8 26  1  0      
M  END

>  <RackCode>
HYCPK72334

>  <Cat. No.>
HY-N0699

>  <Product Name>
Daphnoretin

>  <ROW>
K

>  <COLUMN>
18

>  <CAS No.>
2034-69-7

>  <MWt>
352.29

>  <Target>
Influenza Virus; PKC

>  <Saltdate>
Free Base

>  <Smiles>
O=C1C(OC2=CC=C(C(O3)=C2)C=CC3=O)=CC4=CC(OC)=C(O)C=C4O1

>  <Solvent>
DMSO Solution

>  <Batch No.>
115045

>  <Quantity>
10mM  * 50uL

>  <Pathway>
Anti-infection; Epigenetics; TGF-beta/Smad

>  <Synonyms>
Dephnoretin; Thymelol

>  <Formula>
C19H12O7

>  <Research_Area>
Infection

>  <Clinical_Information>
No Development Reported

>  <SUPPLIER>
MedChemExpress

$$$$
Untitled Document
  ChemDraw05082315342D

 24 27  0  0  0  0  0  0  0  0999 V2000
   -1.7863   -1.0313    0.0000 O   0  0  0  0  0  0  0  0  0  0  0  0
   -1.7863   -0.2062    0.0000 C   0  0  0  0  0  0  0  0  0  0  0  0
   -1.0717    0.2062    0.0000 N   0  0  0  0  0  0  0  0  0  0  0  0
   -1.0717    1.0313    0.0000 C   0  0  0  0  0  0  0  0  0  0  0  0
   -0.3572    1.4437    0.0000 N   0  0  0  0  0  0  0  0  0  0  0  0
    0.3572    1.0313    0.0000 C   0  0  0  0  0  0  0  0  0  0  0  0
    1.0717    1.4437    0.0000 N   0  0  0  0  0  0  0  0  0  0  0  0
    1.7863    1.0313    0.0000 C   0  0  0  0  0  0  0  0  0  0  0  0
    1.7863    0.2062    0.0000 C   0  0  0  0  0  0  0  0  0  0  0  0
    1.0717   -0.2062    0.0000 C   0  0  0  0  0  0  0  0  0  0  0  0
    0.3572    0.2062    0.0000 C   0  0  0  0  0  0  0  0  0  0  0  0
    2.5007   -0.2062    0.0000 N   0  0  0  0  0  0  0  0  0  0  0  0
    3.2152    0.2062    0.0000 C   0  0  0  0  0  0  0  0  0  0  0  0
    3.9297   -0.2062    0.0000 C   0  0  0  0  0  0  0  0  0  0  0  0
    3.9297   -1.0313    0.0000 N   0  0  0  0  0  0  0  0  0  0  0  0
    3.2152   -1.4437    0.0000 C   0  0  0  0  0  0  0  0  0  0  0  0
    2.5007   -1.0313    0.0000 C   0  0  0  0  0  0  0  0  0  0  0  0
   -1.7863    1.4437    0.0000 N   0  0  0  0  0  0  0  0  0  0  0  0
   -2.5007    1.0313    0.0000 C   0  0  0  0  0  0  0  0  0  0  0  0
   -3.2152    1.4437    0.0000 C   0  0  0  0  0  0  0  0  0  0  0  0
   -3.9297    1.0313    0.0000 N   0  0  0  0  0  0  0  0  0  0  0  0
   -3.9297    0.2062    0.0000 C   0  0  0  0  0  0  0  0  0  0  0  0
   -3.2152   -0.2062    0.0000 C   0  0  0  0  0  0  0  0  0  0  0  0
   -2.5007    0.2062    0.0000 C   0  0  0  0  0  0  0  0  0  0  0  0
  1  2  2  0      
  2  3  1  0      
  3  4  2  0      
  4  5  1  0      
  5  6  1  0      
  6  7  2  0      
  7  8  1  0      
  8  9  2  0      
  9 10  1  0      
 10 11  2  0      
  6 11  1  0      
  9 12  1  0      
 12 13  1  0      
 13 14  1  0      
 14 15  1  0      
 15 16  1  0      
 16 17  1  0      
 12 17  1  0      
  4 18  1  0      
 18 19  1  0      
 19 20  1  0      
 20 21  2  0      
 21 22  1  0      
 22 23  2  0      
 23 24  1  0      
  2 24  1  0      
 19 24  2  0      
M  END

>  <RackCode>
HYCPK72334

>  <Cat. No.>
HY-153534

>  <Product Name>
microRNA-21-IN-3

>  <ROW>
L

>  <COLUMN>
18

>  <CAS No.>
2766106-83-4

>  <MWt>
323.35

>  <Target>
MicroRNA

>  <Saltdate>


>  <Smiles>
O=C1N=C(NC2=C1C=CN=C2)NC3=NC=C(N4CCNCC4)C=C3

>  <Solvent>
DMSO Solution

>  <Batch No.>
290140

>  <Quantity>
10mM  * 50uL

>  <Pathway>
Epigenetics

>  <Synonyms>


>  <Formula>
C16H17N7O

>  <Research_Area>
Cancer

>  <Clinical_Information>
No Development Reported

>  <SUPPLIER>
MedChemExpress

$$$$
Untitled Document
  ChemDraw09291615212D

 19 21  0  0  0  0  0  0  0  0999 V2000
    0.8308   -0.0282    0.0000 C   0  0  0  0  0  0  0  0  0  0  0  0
    1.6377    0.1433    0.0000 O   0  0  0  0  0  0  0  0  0  0  0  0
    0.2474    0.5552    0.0000 C   0  0  0  0  0  0  0  0  0  0  0  0
    0.4609    1.3521    0.0000 C   0  0  0  0  0  0  0  0  0  0  0  0
   -0.1224    1.9354    0.0000 C   0  0  0  0  0  0  0  0  0  0  0  0
   -0.9193    1.7219    0.0000 C   0  0  0  0  0  0  0  0  0  0  0  0
   -1.1329    0.9250    0.0000 C   0  0  0  0  0  0  0  0  0  0  0  0
   -0.5495    0.3416    0.0000 C   0  0  0  0  0  0  0  0  0  0  0  0
   -1.5027    2.3053    0.0000 Cl  0  0  0  0  0  0  0  0  0  0  0  0
    1.2578    1.5656    0.0000 Cl  0  0  0  0  0  0  0  0  0  0  0  0
    0.5758   -0.8128    0.0000 N   0  0  0  0  0  0  0  0  0  0  0  0
    1.0607   -1.4803    0.0000 N   0  0  0  0  0  0  0  0  0  0  0  0
    0.5758   -2.1477    0.0000 N   0  0  0  0  0  0  0  0  0  0  0  0
   -0.2088   -1.8928    0.0000 C   0  0  0  0  0  0  0  0  0  0  0  0
   -0.2088   -1.0678    0.0000 C   0  0  0  0  0  0  0  0  0  0  0  0
   -0.9233   -2.3053    0.0000 C   0  0  0  0  0  0  0  0  0  0  0  0
   -1.6377   -1.8928    0.0000 C   0  0  0  0  0  0  0  0  0  0  0  0
   -1.6377   -1.0678    0.0000 C   0  0  0  0  0  0  0  0  0  0  0  0
   -0.9233   -0.6553    0.0000 C   0  0  0  0  0  0  0  0  0  0  0  0
  1  2  2  0      
  3  4  1  0      
  4  5  2  0      
  5  6  1  0      
  6  7  2  0      
  7  8  1  0      
  3  8  2  0      
  6  9  1  0      
  4 10  1  0      
  1  3  1  0      
 11 12  1  0      
 12 13  2  0      
 13 14  1  0      
 14 15  1  0      
 11 15  1  0      
 16 17  1  0      
 17 18  2  0      
 18 19  1  0      
 15 19  2  0      
 14 16  2  0      
  1 11  1  0      
M  END

>  <RackCode>
HYCPK72334

>  <Cat. No.>
HY-100508

>  <Product Name>
ITSA-1

>  <ROW>
M

>  <COLUMN>
18

>  <CAS No.>
200626-61-5

>  <MWt>
292.12

>  <Target>
HDAC

>  <Saltdate>
Free Base

>  <Smiles>
O=C(N1N=NC2=CC=CC=C21)C3=CC=C(Cl)C=C3Cl

>  <Solvent>
DMSO Solution

>  <Batch No.>
21801

>  <Quantity>
10mM  * 50uL

>  <Pathway>
Cell Cycle/DNA Damage; Epigenetics

>  <Synonyms>


>  <Formula>
C13H7Cl2N3O

>  <Research_Area>
Cancer

>  <Clinical_Information>
No Development Reported

>  <SUPPLIER>
MedChemExpress

$$$$
Untitled Document
  ChemDraw01142117302D

 29 31  0  0  0  0  0  0  0  0999 V2000
    4.2624   -1.0312    0.0000 C   0  0  0  0  0  0  0  0  0  0  0  0
    3.4374   -1.0312    0.0000 C   0  0  0  0  0  0  0  0  0  0  0  0
    3.0249   -0.3168    0.0000 C   0  0  0  0  0  0  0  0  0  0  0  0
    4.6749   -0.3168    0.0000 O   0  0  0  0  0  0  0  0  0  0  0  0
    4.6749   -1.7457    0.0000 N   0  0  0  0  0  0  0  0  0  0  0  0
    5.4999   -1.7457    0.0000 O   0  0  0  0  0  0  0  0  0  0  0  0
    0.9303    0.0957    0.0000 C   0  0  0  0  0  0  0  0  0  0  0  0
    0.9303   -0.7293    0.0000 C   0  0  0  0  0  0  0  0  0  0  0  0
    1.7150   -0.9842    0.0000 C   0  0  0  0  0  0  0  0  0  0  0  0
    2.1999   -0.3168    0.0000 C   0  0  0  0  0  0  0  0  0  0  0  0
    1.7150    0.3507    0.0000 S   0  0  0  0  0  0  0  0  0  0  0  0
    0.2159   -1.1418    0.0000 C   0  0  0  0  0  0  0  0  0  0  0  0
   -0.4986   -0.7293    0.0000 C   0  0  0  0  0  0  0  0  0  0  0  0
   -0.4986    0.0957    0.0000 C   0  0  0  0  0  0  0  0  0  0  0  0
    0.2159    0.5082    0.0000 C   0  0  0  0  0  0  0  0  0  0  0  0
   -1.2131   -1.1418    0.0000 N   0  0  0  0  0  0  0  0  0  0  0  0
   -1.9275   -0.7293    0.0000 S   0  0  0  0  0  0  0  0  0  0  0  0
   -1.5150   -0.0148    0.0000 O   0  0  0  0  0  0  0  0  0  0  0  0
   -2.3400   -1.4437    0.0000 O   0  0  0  0  0  0  0  0  0  0  0  0
   -2.6420   -0.3168    0.0000 C   0  0  0  0  0  0  0  0  0  0  0  0
   -3.3565   -0.7293    0.0000 C   0  0  0  0  0  0  0  0  0  0  0  0
   -4.0709   -0.3168    0.0000 C   0  0  0  0  0  0  0  0  0  0  0  0
   -4.0709    0.5082    0.0000 C   0  0  0  0  0  0  0  0  0  0  0  0
   -3.3565    0.9207    0.0000 C   0  0  0  0  0  0  0  0  0  0  0  0
   -2.6420    0.5082    0.0000 C   0  0  0  0  0  0  0  0  0  0  0  0
   -4.7854    0.9207    0.0000 C   0  0  0  0  0  0  0  0  0  0  0  0
   -5.4999    1.3332    0.0000 C   0  0  0  0  0  0  0  0  0  0  0  0
   -4.7854    1.7457    0.0000 C   0  0  0  0  0  0  0  0  0  0  0  0
   -5.4999    0.5082    0.0000 C   0  0  0  0  0  0  0  0  0  0  0  0
  1  2  1  0      
  2  3  2  0      
  1  4  2  0      
  1  5  1  0      
  5  6  1  0      
  7  8  1  0      
  8  9  1  0      
  9 10  2  0      
 10 11  1  0      
  7 11  1  0      
 12 13  1  0      
 13 14  2  0      
 14 15  1  0      
 15  7  2  0      
 12  8  2  0      
 17 18  2  0      
 17 19  2  0      
 20 21  1  0      
 21 22  2  0      
 22 23  1  0      
 23 24  2  0      
 24 25  1  0      
 20 25  2  0      
 26 27  1  0      
 26 28  1  0      
 26 29  1  0      
 23 26  1  0      
 17 20  1  0      
 16 17  1  0      
 13 16  1  0      
  3 10  1  0      
M  END

>  <RackCode>
HYCPK72334

>  <Cat. No.>
HY-134601

>  <Product Name>
KH-3

>  <ROW>
N

>  <COLUMN>
18

>  <CAS No.>
1215115-03-9

>  <MWt>
430.54

>  <Target>
HuR

>  <Saltdate>


>  <Smiles>
O=C(NO)/C=C/C1=CC2=CC(NS(=O)(C3=CC=C(C(C)(C)C)C=C3)=O)=CC=C2S1

>  <Solvent>
DMSO Solution

>  <Batch No.>
269819

>  <Quantity>
10mM  * 50uL

>  <Pathway>
Epigenetics

>  <Synonyms>


>  <Formula>
C21H22N2O4S2

>  <Research_Area>
Cancer

>  <Clinical_Information>
No Development Reported

>  <SUPPLIER>
MedChemExpress

$$$$
Untitled Document
  ChemDraw08221910382D

 16 18  0  0  0  0  0  0  0  0999 V2000
    0.7145    0.2062    0.0000 C   0  0  0  0  0  0  0  0  0  0  0  0
    0.0000    0.6187    0.0000 C   0  0  0  0  0  0  0  0  0  0  0  0
   -0.7145    0.2062    0.0000 C   0  0  0  0  0  0  0  0  0  0  0  0
   -0.7145   -0.6187    0.0000 C   0  0  0  0  0  0  0  0  0  0  0  0
    0.0000   -1.0313    0.0000 C   0  0  0  0  0  0  0  0  0  0  0  0
    0.7145   -0.6187    0.0000 O   0  0  0  0  0  0  0  0  0  0  0  0
    0.0000    1.4437    0.0000 C   0  0  0  0  0  0  0  0  0  0  0  0
    0.7145    1.8563    0.0000 C   0  0  0  0  0  0  0  0  0  0  0  0
    1.4289    1.4437    0.0000 C   0  0  0  0  0  0  0  0  0  0  0  0
    1.4289    0.6187    0.0000 C   0  0  0  0  0  0  0  0  0  0  0  0
   -1.4289   -1.0313    0.0000 C   0  0  0  0  0  0  0  0  0  0  0  0
   -2.1434   -0.6187    0.0000 C   0  0  0  0  0  0  0  0  0  0  0  0
   -2.1434    0.2062    0.0000 C   0  0  0  0  0  0  0  0  0  0  0  0
   -1.4289    0.6187    0.0000 C   0  0  0  0  0  0  0  0  0  0  0  0
    0.0000   -1.8563    0.0000 O   0  0  0  0  0  0  0  0  0  0  0  0
    2.1434    1.8563    0.0000 O   0  0  0  0  0  0  0  0  0  0  0  0
  1  2  1  0      
  2  3  1  0      
  3  4  1  0      
  4  5  1  0      
  5  6  1  0      
  1  6  1  0      
  7  8  1  0      
  8  9  2  0      
  9 10  1  0      
 10  1  2  0      
  7  2  2  0      
 11 12  1  0      
 12 13  2  0      
 13 14  1  0      
 14  3  2  0      
 11  4  2  0      
  5 15  2  0      
  9 16  1  0      
M  END

>  <RackCode>
HYCPK72334

>  <Cat. No.>
HY-126307

>  <Product Name>
Urolithin B

>  <ROW>
O

>  <COLUMN>
18

>  <CAS No.>
1139-83-9

>  <MWt>
212.20

>  <Target>
Akt; AMPK; Endogenous Metabolite; ERK; JNK; NF-¦ÊB

>  <Saltdate>
Free Base

>  <Smiles>
O=C1C2=CC=CC=C2C3=CC=C(O)C=C3O1

>  <Solvent>
DMSO Solution

>  <Batch No.>
55619

>  <Quantity>
10mM  * 50uL

>  <Pathway>
Epigenetics; MAPK/ERK Pathway; Metabolic Enzyme/Protease; NF-¦ÊB; PI3K/Akt/mTOR; Stem Cell/Wnt

>  <Synonyms>


>  <Formula>
C13H8O3

>  <Research_Area>
Inflammation/Immunology

>  <Clinical_Information>
No Development Reported

>  <SUPPLIER>
MedChemExpress

$$$$
Untitled Document
  ChemDraw02031610162D

 22 24  0  0  0  0  0  0  0  0999 V2000
   -0.6529    0.4125    0.0000 N   0  0  0  0  0  0  0  0  0  0  0  0
    0.0616    0.0000    0.0000 C   0  0  0  0  0  0  0  0  0  0  0  0
    0.0616   -0.8250    0.0000 O   0  0  0  0  0  0  0  0  0  0  0  0
    0.7761    0.4125    0.0000 N   0  0  0  0  0  0  0  0  0  0  0  0
    1.4906    0.0000    0.0000 C   0  0  0  0  0  0  0  0  0  0  0  0
    2.2049    0.4125    0.0000 C   0  0  0  0  0  0  0  0  0  0  0  0
    2.9193    0.0000    0.0000 N   0  0  0  0  0  0  0  0  0  0  0  0
    3.6730    0.3356    0.0000 C   0  0  0  0  0  0  0  0  0  0  0  0
    4.2250   -0.2775    0.0000 C   0  0  0  0  0  0  0  0  0  0  0  0
    3.8125   -0.9920    0.0000 C   0  0  0  0  0  0  0  0  0  0  0  0
    3.0055   -0.8205    0.0000 C   0  0  0  0  0  0  0  0  0  0  0  0
    2.2049    1.2375    0.0000 O   0  0  0  0  0  0  0  0  0  0  0  0
   -2.0817    0.4125    0.0000 C   0  0  0  0  0  0  0  0  0  0  0  0
   -1.3673    0.0000    0.0000 C   0  0  0  0  0  0  0  0  0  0  0  0
   -1.3673   -0.8250    0.0000 C   0  0  0  0  0  0  0  0  0  0  0  0
   -2.0817   -1.2375    0.0000 C   0  0  0  0  0  0  0  0  0  0  0  0
   -2.7961   -0.8250    0.0000 C   0  0  0  0  0  0  0  0  0  0  0  0
   -3.5105   -1.2375    0.0000 C   0  0  0  0  0  0  0  0  0  0  0  0
   -4.2250   -0.8250    0.0000 N   0  0  0  0  0  0  0  0  0  0  0  0
   -4.2250    0.0000    0.0000 C   0  0  0  0  0  0  0  0  0  0  0  0
   -3.5105    0.4125    0.0000 C   0  0  0  0  0  0  0  0  0  0  0  0
   -2.7961    0.0000    0.0000 C   0  0  0  0  0  0  0  0  0  0  0  0
  1  2  1  0      
  2  3  2  0      
  2  4  1  0      
  5  6  1  0      
  7  8  1  0      
  8  9  1  0      
  9 10  1  0      
 10 11  1  0      
  7 11  1  0      
  6  7  1  0      
  6 12  2  0      
  4  5  1  0      
 13 14  1  0      
 14 15  2  0      
 15 16  1  0      
 16 17  2  0      
 17 18  1  0      
 18 19  2  0      
 19 20  1  0      
 20 21  2  0      
 21 22  1  0      
 13 22  2  0      
 17 22  1  0      
  1 14  1  0      
M  END

>  <RackCode>
HYCPK72334

>  <Cat. No.>
HY-19715

>  <Product Name>
SGC707

>  <ROW>
P

>  <COLUMN>
18

>  <CAS No.>
1687736-54-4

>  <MWt>
298.34

>  <Target>
Histone Methyltransferase

>  <Saltdate>
Free Base

>  <Smiles>
O=C(NCC(N1CCCC1)=O)NC2=CC=C3C=NC=CC3=C2

>  <Solvent>
DMSO Solution

>  <Batch No.>
19747

>  <Quantity>
10mM  * 50uL

>  <Pathway>
Epigenetics

>  <Synonyms>


>  <Formula>
C16H18N4O2

>  <Research_Area>
Metabolic Disease

>  <Clinical_Information>
No Development Reported

>  <SUPPLIER>
MedChemExpress

$$$$
Untitled Document
  ChemDraw12082315062D

 16 17  0  0  0  0  0  0  0  0999 V2000
   -2.2272    0.5228    0.0000 C   0  0  0  0  0  0  0  0  0  0  0  0
   -2.2272   -0.3022    0.0000 C   0  0  0  0  0  0  0  0  0  0  0  0
   -1.5127   -0.7147    0.0000 C   0  0  0  0  0  0  0  0  0  0  0  0
   -0.7982   -0.3022    0.0000 C   0  0  0  0  0  0  0  0  0  0  0  0
   -0.7982    0.5228    0.0000 C   0  0  0  0  0  0  0  0  0  0  0  0
   -1.5127    0.9353    0.0000 C   0  0  0  0  0  0  0  0  0  0  0  0
   -0.0136   -0.5571    0.0000 O   0  0  0  0  0  0  0  0  0  0  0  0
    0.4713    0.1103    0.0000 C   0  0  0  0  0  0  0  0  0  0  0  0
   -0.0136    0.7778    0.0000 C   0  0  0  0  0  0  0  0  0  0  0  0
   -2.9392    0.9339    0.0000 Cl  0  0  0  0  0  0  0  0  0  0  0  0
   -1.5127   -1.5368    0.0000 Cl  0  0  0  0  0  0  0  0  0  0  0  0
    1.2935    0.1103    0.0000 C   0  0  0  0  0  0  0  0  0  0  0  0
    1.7060    0.8248    0.0000 N   0  0  0  0  0  0  0  0  0  0  0  0
    2.5281    0.8248    0.0000 C   0  0  0  0  0  0  0  0  0  0  0  0
    2.9392    1.5368    0.0000 C   0  0  0  0  0  0  0  0  0  0  0  0
    2.9392    0.1128    0.0000 C   0  0  0  0  0  0  0  0  0  0  0  0
  1  2  2  0      
  2  3  1  0      
  3  4  2  0      
  4  5  1  0      
  5  6  2  0      
  6  1  1  0      
  4  7  1  0      
  7  8  1  0      
  8  9  1  0      
  9  5  1  0      
  1 10  1  0      
  3 11  1  0      
  8 12  1  0      
 12 13  1  0      
 13 14  1  0      
 14 15  1  0      
 14 16  1  0      
M  END

>  <RackCode>
HYCPK72334

>  <Cat. No.>
HY-161024

>  <Product Name>
AC1Q3QWB

>  <ROW>
A

>  <COLUMN>
19

>  <CAS No.>
46697-00-1

>  <MWt>
260.16

>  <Target>
Histone Methyltransferase

>  <Saltdate>


>  <Smiles>
ClC1=CC(Cl)=C(OC(CNC(C)C)C2)C2=C1

>  <Solvent>
DMSO Solution

>  <Batch No.>
399985

>  <Quantity>
10mM  * 50uL

>  <Pathway>
Epigenetics

>  <Synonyms>
AQB

>  <Formula>
C12H15Cl2NO

>  <Research_Area>
Cancer

>  <Clinical_Information>
No Development Reported

>  <SUPPLIER>
MedChemExpress

$$$$
Untitled Document
  ChemDraw05101917272D

 24 26  0  0  0  0  0  0  0  0999 V2000
    0.0000   -2.4750    0.0000 Br  0  0  0  0  0  0  0  0  0  0  0  0
    0.0000   -1.6500    0.0000 C   0  0  0  0  0  0  0  0  0  0  0  0
    0.7145   -1.2375    0.0000 C   0  0  0  0  0  0  0  0  0  0  0  0
    0.7145   -0.4125    0.0000 C   0  0  0  0  0  0  0  0  0  0  0  0
    1.4289    0.0000    0.0000 N   0  0  0  0  0  0  0  0  0  0  0  0
    1.4289    0.8250    0.0000 C   0  0  0  0  0  0  0  0  0  0  0  0
    2.1434    1.2375    0.0000 N   0  0  0  0  0  0  0  0  0  0  0  0
    2.1434    2.0625    0.0000 C   0  0  0  0  0  0  0  0  0  0  0  0
    1.4289    2.4750    0.0000 N   0  0  0  0  0  0  0  0  0  0  0  0
    0.7145    2.0625    0.0000 C   0  0  0  0  0  0  0  0  0  0  0  0
    0.0000    2.4750    0.0000 C   0  0  0  0  0  0  0  0  0  0  0  0
   -0.7145    2.0625    0.0000 C   0  0  0  0  0  0  0  0  0  0  0  0
   -1.4289    2.4750    0.0000 O   0  0  0  0  0  0  0  0  0  0  0  0
   -2.1434    2.0625    0.0000 C   0  0  0  0  0  0  0  0  0  0  0  0
   -0.7145    1.2375    0.0000 C   0  0  0  0  0  0  0  0  0  0  0  0
   -1.4289    0.8250    0.0000 O   0  0  0  0  0  0  0  0  0  0  0  0
   -2.1434    1.2375    0.0000 C   0  0  0  0  0  0  0  0  0  0  0  0
    0.0000    0.8250    0.0000 C   0  0  0  0  0  0  0  0  0  0  0  0
    0.7145    1.2375    0.0000 C   0  0  0  0  0  0  0  0  0  0  0  0
    0.0000    0.0000    0.0000 C   0  0  0  0  0  0  0  0  0  0  0  0
   -0.7145   -0.4125    0.0000 C   0  0  0  0  0  0  0  0  0  0  0  0
   -1.4289    0.0000    0.0000 Br  0  0  0  0  0  0  0  0  0  0  0  0
   -0.7145   -1.2375    0.0000 C   0  0  0  0  0  0  0  0  0  0  0  0
   -1.4289   -1.6500    0.0000 O   0  0  0  0  0  0  0  0  0  0  0  0
  1  2  1  0      
  2  3  2  0      
  3  4  1  0      
  4  5  1  0      
  5  6  1  0      
  6  7  2  0      
  7  8  1  0      
  8  9  2  0      
  9 10  1  0      
 10 11  2  0      
 11 12  1  0      
 12 13  1  0      
 13 14  1  0      
 12 15  2  0      
 15 16  1  0      
 16 17  1  0      
 15 18  1  0      
 18 19  2  0      
 10 19  1  0      
  6 19  1  0      
  4 20  2  0      
 20 21  1  0      
 21 22  1  0      
 21 23  2  0      
  2 23  1  0      
 23 24  1  0      
M  END

>  <RackCode>
HYCPK72334

>  <Cat. No.>
HY-11067

>  <Product Name>
WHI-P97

>  <ROW>
B

>  <COLUMN>
19

>  <CAS No.>
211555-05-4

>  <MWt>
455.10

>  <Target>
JAK

>  <Saltdate>
Free Base

>  <Smiles>
BrC1=CC(NC2=NC=NC3=CC(OC)=C(OC)C=C32)=CC(Br)=C1O

>  <Solvent>
DMSO Solution

>  <Batch No.>
03266

>  <Quantity>
10mM  * 50uL

>  <Pathway>
Epigenetics; JAK/STAT Signaling; Protein Tyrosine Kinase/RTK; Stem Cell/Wnt

>  <Synonyms>


>  <Formula>
C16H13Br2N3O3

>  <Research_Area>
Inflammation/Immunology

>  <Clinical_Information>
No Development Reported

>  <SUPPLIER>
MedChemExpress

$$$$
Untitled Document
  ChemDraw05302209532D

 29 32  0  0  0  0  0  0  0  0999 V2000
   -2.1435   -1.4437    0.0000 C   0  0  0  0  0  0  0  0  0  0  0  0
   -1.4289   -1.0313    0.0000 N   0  0  0  0  0  0  0  0  0  0  0  0
   -1.4289   -0.2062    0.0000 N   0  0  0  0  0  0  0  0  0  0  0  0
   -2.1435    0.2062    0.0000 C   0  0  0  0  0  0  0  0  0  0  0  0
   -2.8580   -0.2062    0.0000 C   0  0  0  0  0  0  0  0  0  0  0  0
   -3.5725    0.2062    0.0000 C   0  0  0  0  0  0  0  0  0  0  0  0
   -4.2869   -0.2062    0.0000 C   0  0  0  0  0  0  0  0  0  0  0  0
   -4.2869   -1.0313    0.0000 C   0  0  0  0  0  0  0  0  0  0  0  0
   -3.5725   -1.4437    0.0000 C   0  0  0  0  0  0  0  0  0  0  0  0
   -2.8580   -1.0313    0.0000 C   0  0  0  0  0  0  0  0  0  0  0  0
    0.7145   -1.4437    0.0000 C   0  0  0  0  0  0  0  0  0  0  0  0
   -0.0000   -1.0313    0.0000 C   0  0  0  0  0  0  0  0  0  0  0  0
   -0.7145   -1.4437    0.0000 C   0  0  0  0  0  0  0  0  0  0  0  0
    0.7145   -2.2688    0.0000 O   0  0  0  0  0  0  0  0  0  0  0  0
    1.4289   -1.0313    0.0000 N   0  0  0  0  0  0  0  0  0  0  0  0
   -2.1435    1.0313    0.0000 C   0  0  0  0  0  0  0  0  0  0  0  0
   -1.4289    1.4437    0.0000 C   0  0  0  0  0  0  0  0  0  0  0  0
   -1.4289    2.2688    0.0000 C   0  0  0  0  0  0  0  0  0  0  0  0
   -2.1435    2.6813    0.0000 C   0  0  0  0  0  0  0  0  0  0  0  0
   -2.8580    2.2688    0.0000 C   0  0  0  0  0  0  0  0  0  0  0  0
   -2.8580    1.4437    0.0000 C   0  0  0  0  0  0  0  0  0  0  0  0
   -2.1435   -2.2688    0.0000 O   0  0  0  0  0  0  0  0  0  0  0  0
    2.1435   -1.4437    0.0000 C   0  0  0  0  0  0  0  0  0  0  0  0
    2.8580   -1.0313    0.0000 C   0  0  0  0  0  0  0  0  0  0  0  0
    3.5725   -1.4437    0.0000 C   0  0  0  0  0  0  0  0  0  0  0  0
    3.5725   -2.2688    0.0000 C   0  0  0  0  0  0  0  0  0  0  0  0
    2.8580   -2.6813    0.0000 C   0  0  0  0  0  0  0  0  0  0  0  0
    2.1435   -2.2688    0.0000 C   0  0  0  0  0  0  0  0  0  0  0  0
    4.2869   -1.0313    0.0000 Cl  0  0  0  0  0  0  0  0  0  0  0  0
  1  2  1  0      
  2  3  1  0      
  3  4  2  0      
  4  5  1  0      
  5  6  1  0      
  6  7  2  0      
  7  8  1  0      
  8  9  2  0      
  9 10  1  0      
  1 10  1  0      
  5 10  2  0      
 11 12  1  0      
 12 13  1  0      
 11 14  2  0      
 11 15  1  0      
  2 13  1  0      
 16 17  1  0      
 17 18  2  0      
 18 19  1  0      
 19 20  2  0      
 20 21  1  0      
 16 21  2  0      
  4 16  1  0      
  1 22  2  0      
 23 24  1  0      
 24 25  2  0      
 25 26  1  0      
 26 27  2  0      
 27 28  1  0      
 23 28  2  0      
 25 29  1  0      
 15 23  1  0      
M  END

>  <RackCode>
HYCPK72334

>  <Cat. No.>
HY-147030

>  <Product Name>
PARP1-IN-8

>  <ROW>
C

>  <COLUMN>
19

>  <CAS No.>
836640-15-4

>  <MWt>
403.86

>  <Target>
PARP

>  <Saltdate>


>  <Smiles>
O=C(NC1=CC=CC(Cl)=C1)CCN(N=C(C2=CC=CC=C2)C3=C4C=CC=C3)C4=O

>  <Solvent>
DMSO Solution

>  <Batch No.>
154025

>  <Quantity>
10mM  * 50uL

>  <Pathway>
Cell Cycle/DNA Damage; Epigenetics

>  <Synonyms>


>  <Formula>
C23H18ClN3O2

>  <Research_Area>
Cancer

>  <Clinical_Information>
No Development Reported

>  <SUPPLIER>
MedChemExpress

$$$$
Untitled Document
  ChemDraw01051714472D

 33 36  0  0  0  0  0  0  0  0999 V2000
   -2.5006   -1.6500    0.0000 C   0  0  0  0  0  0  0  0  0  0  0  0
   -1.7862   -2.0625    0.0000 N   0  0  0  0  0  0  0  0  0  0  0  0
   -1.0717   -1.6500    0.0000 C   0  0  0  0  0  0  0  0  0  0  0  0
   -1.0717   -0.8250    0.0000 C   0  0  0  0  0  0  0  0  0  0  0  0
   -1.7862   -0.4125    0.0000 C   0  0  0  0  0  0  0  0  0  0  0  0
   -2.5006   -0.8250    0.0000 N   0  0  0  0  0  0  0  0  0  0  0  0
   -0.3572   -0.4125    0.0000 C   0  0  0  0  0  0  0  0  0  0  0  0
   -0.3572    0.4125    0.0000 O   0  0  0  0  0  0  0  0  0  0  0  0
    0.3572   -0.8250    0.0000 N   0  0  0  0  0  0  0  0  0  0  0  0
   -3.2151   -2.0625    0.0000 C   0  0  0  0  0  0  0  0  0  0  0  0
   -3.2151   -2.8875    0.0000 C   0  0  0  0  0  0  0  0  0  0  0  0
   -3.9296   -3.3000    0.0000 C   0  0  0  0  0  0  0  0  0  0  0  0
   -4.6441   -2.8875    0.0000 C   0  0  0  0  0  0  0  0  0  0  0  0
   -4.6441   -2.0625    0.0000 N   0  0  0  0  0  0  0  0  0  0  0  0
   -3.9296   -1.6500    0.0000 N   0  0  0  0  0  0  0  0  0  0  0  0
   -0.3572   -2.0625    0.0000 O   0  0  0  0  0  0  0  0  0  0  0  0
    1.0717   -0.4125    0.0000 C   0  0  0  0  0  0  0  0  0  0  0  0
    1.0717    0.4125    0.0000 C   0  0  0  0  0  0  0  0  0  0  0  0
    0.3572    0.8250    0.0000 C   0  0  0  0  0  0  0  0  0  0  0  0
    0.3572    1.6500    0.0000 C   0  0  0  0  0  0  0  0  0  0  0  0
    1.0717    2.0625    0.0000 C   0  0  0  0  0  0  0  0  0  0  0  0
    1.7862    1.6500    0.0000 C   0  0  0  0  0  0  0  0  0  0  0  0
    1.7862    0.8250    0.0000 C   0  0  0  0  0  0  0  0  0  0  0  0
    1.0717    2.8875    0.0000 O   0  0  0  0  0  0  0  0  0  0  0  0
    1.7862    3.3000    0.0000 C   0  0  0  0  0  0  0  0  0  0  0  0
    1.7862   -0.8250    0.0000 C   0  0  0  0  0  0  0  0  0  0  0  0
    2.5006   -0.4125    0.0000 C   0  0  0  0  0  0  0  0  0  0  0  0
    3.2151   -0.8250    0.0000 C   0  0  0  0  0  0  0  0  0  0  0  0
    3.2151   -1.6500    0.0000 C   0  0  0  0  0  0  0  0  0  0  0  0
    2.5006   -2.0625    0.0000 C   0  0  0  0  0  0  0  0  0  0  0  0
    1.7862   -1.6500    0.0000 C   0  0  0  0  0  0  0  0  0  0  0  0
    3.9296   -2.0625    0.0000 O   0  0  0  0  0  0  0  0  0  0  0  0
    4.6441   -1.6500    0.0000 C   0  0  0  0  0  0  0  0  0  0  0  0
  1  2  1  0      
  2  3  2  0      
  3  4  1  0      
  4  5  2  0      
  5  6  1  0      
  1  6  2  0      
  7  8  2  0      
  7  9  1  0      
  4  7  1  0      
 10 11  1  0      
 11 12  2  0      
 12 13  1  0      
 13 14  2  0      
 14 15  1  0      
 10 15  2  0      
  1 10  1  0      
  3 16  1  0      
 18 19  1  0      
 19 20  2  0      
 20 21  1  0      
 21 22  2  0      
 22 23  1  0      
 18 23  2  0      
 24 25  1  0      
 21 24  1  0      
 17 18  1  0      
 26 27  1  0      
 27 28  2  0      
 28 29  1  0      
 29 30  2  0      
 30 31  1  0      
 26 31  2  0      
 32 33  1  0      
 29 32  1  0      
 17 26  1  0      
  9 17  1  0      
M  END

>  <RackCode>
HYCPK72334

>  <Cat. No.>
HY-101023

>  <Product Name>
MK-8617

>  <ROW>
D

>  <COLUMN>
19

>  <CAS No.>
1187990-87-9

>  <MWt>
443.45

>  <Target>
HIF/HIF Prolyl-Hydroxylase

>  <Saltdate>
Free Base

>  <Smiles>
O=C(C1=CN=C(C2=NN=CC=C2)N=C1O)NC(C3=CC=C(OC)C=C3)C4=CC=C(OC)C=C4

>  <Solvent>
DMSO Solution

>  <Batch No.>
29060

>  <Quantity>
10mM  * 50uL

>  <Pathway>
Metabolic Enzyme/Protease

>  <Synonyms>


>  <Formula>
C24H21N5O4

>  <Research_Area>
Inflammation/Immunology

>  <Clinical_Information>
No Development Reported

>  <SUPPLIER>
MedChemExpress

$$$$
Untitled Document
  ChemDraw09111713392D

 59 64  0  0  0  0  0  0  0  0999 V2000
    2.4109    0.2836    0.0000 C   0  0  0  0  0  0  0  0  0  0  0  0
    1.7811    0.8121    0.0000 C   0  0  0  0  0  0  0  0  0  0  0  0
    1.0705    1.2319    0.0000 C   0  0  0  0  0  0  0  0  0  0  0  0
    0.3544    0.8216    0.0000 C   0  0  0  0  0  0  0  0  0  0  0  0
    0.0732    1.5941    0.0000 C   0  0  0  0  0  0  0  0  0  0  0  0
    0.3544   -0.0095    0.0000 C   0  0  0  0  0  0  0  0  0  0  0  0
    1.0650   -0.4293    0.0000 C   0  0  0  0  0  0  0  0  0  0  0  0
    1.7784   -0.0142    0.0000 C   0  0  0  0  0  0  0  0  0  0  0  0
   -0.3611   -0.4245    0.0000 C   0  0  0  0  0  0  0  0  0  0  0  0
   -0.7722   -1.1365    0.0000 C   0  0  0  0  0  0  0  0  0  0  0  0
    0.0499   -1.1365    0.0000 C   0  0  0  0  0  0  0  0  0  0  0  0
   -1.0719   -0.0048    0.0000 C   0  0  0  0  0  0  0  0  0  0  0  0
   -1.0691    0.8215    0.0000 C   0  0  0  0  0  0  0  0  0  0  0  0
   -0.3556    1.2366    0.0000 C   0  0  0  0  0  0  0  0  0  0  0  0
   -1.7839   -0.4158    0.0000 O   0  0  0  0  0  0  0  0  0  0  0  0
   -2.4959   -0.0048    0.0000 C   0  0  0  0  0  0  0  0  0  0  0  0
   -3.2079   -0.4159    0.0000 C   0  0  0  0  0  0  0  0  0  0  0  0
   -3.2079   -1.2380    0.0000 O   0  0  0  0  0  0  0  0  0  0  0  0
   -3.9199   -1.6491    0.0000 C   0  0  0  0  0  0  0  0  0  0  0  0
   -4.6337   -1.2370    0.0000 O   0  0  0  0  0  0  0  0  0  0  0  0
   -5.3468   -1.6499    0.0000 C   0  0  0  0  0  0  0  0  0  0  0  0
   -6.0587   -1.2388    0.0000 C   0  0  0  0  0  0  0  0  0  0  0  0
   -6.7707   -1.6499    0.0000 O   0  0  0  0  0  0  0  0  0  0  0  0
   -5.3478   -2.4739    0.0000 C   0  0  0  0  0  0  0  0  0  0  0  0
   -4.6340   -2.8860    0.0000 C   0  0  0  0  0  0  0  0  0  0  0  0
   -3.9195   -2.4741    0.0000 C   0  0  0  0  0  0  0  0  0  0  0  0
   -3.2075   -2.8852    0.0000 O   0  0  0  0  0  0  0  0  0  0  0  0
   -4.6340   -3.7081    0.0000 O   0  0  0  0  0  0  0  0  0  0  0  0
   -6.0598   -2.8849    0.0000 O   0  0  0  0  0  0  0  0  0  0  0  0
   -3.2079   -2.0602    0.0000 H   0  0  0  0  0  0  0  0  0  0  0  0
   -3.9241   -0.0048    0.0000 C   0  0  0  0  0  0  0  0  0  0  0  0
   -4.6361   -0.4158    0.0000 O   0  0  0  0  0  0  0  0  0  0  0  0
   -3.9241    0.8195    0.0000 C   0  0  0  0  0  0  0  0  0  0  0  0
   -3.2079    1.2326    0.0000 C   0  0  0  0  0  0  0  0  0  0  0  0
   -2.4958    0.8195    0.0000 O   0  0  0  0  0  0  0  0  0  0  0  0
   -3.2079    2.0547    0.0000 C   0  0  0  0  0  0  0  0  0  0  0  0
   -3.9199    2.4658    0.0000 O   0  0  0  0  0  0  0  0  0  0  0  0
   -4.6361    1.2305    0.0000 O   0  0  0  0  0  0  0  0  0  0  0  0
   -2.4959   -0.8269    0.0000 H   0  0  0  0  0  0  0  0  0  0  0  0
    0.3544   -0.8316    0.0000 H   0  0  0  0  0  0  0  0  0  0  0  0
    1.0733    2.0667    0.0000 C   0  0  0  0  0  0  0  0  0  0  0  0
    1.7867    2.4796    0.0000 C   0  0  0  0  0  0  0  0  0  0  0  0
    2.4974    2.0620    0.0000 C   0  0  0  0  0  0  0  0  0  0  0  0
    2.4946    1.2271    0.0000 C   0  0  0  0  0  0  0  0  0  0  0  0
    2.8371    0.4797    0.0000 C   0  0  0  0  0  0  0  0  0  0  0  0
    3.9188    1.2224    0.0000 C   0  0  0  0  0  0  0  0  0  0  0  0
    3.9215    2.0572    0.0000 C   0  0  0  0  0  0  0  0  0  0  0  0
    3.2108    2.4749    0.0000 C   0  0  0  0  0  0  0  0  0  0  0  0
    3.2108    3.2970    0.0000 C   0  0  0  0  0  0  0  0  0  0  0  0
    3.9228    3.7081    0.0000 C   0  0  0  0  0  0  0  0  0  0  0  0
    4.6348    3.2970    0.0000 C   0  0  0  0  0  0  0  0  0  0  0  0
    5.3468    3.7081    0.0000 C   0  0  0  0  0  0  0  0  0  0  0  0
    6.0587    3.2970    0.0000 C   0  0  0  0  0  0  0  0  0  0  0  0
    6.7707    3.7081    0.0000 C   0  0  0  0  0  0  0  0  0  0  0  0
    6.0587    2.4749    0.0000 C   0  0  0  0  0  0  0  0  0  0  0  0
    2.4988    3.7081    0.0000 C   0  0  0  0  0  0  0  0  0  0  0  0
    2.4974    2.8841    0.0000 H   0  0  0  0  0  0  0  0  0  0  0  0
    1.7867    3.3018    0.0000 O   0  0  0  0  0  0  0  0  0  0  0  0
    0.5420    1.8617    0.0000 H   0  0  0  0  0  0  0  0  0  0  0  0
  2  1  1  1      
  2  3  1  0      
  2  8  1  0      
  2 44  1  0      
  3  4  1  0      
  3 41  1  0      
  3 59  1  6      
  4  5  1  1      
  4  6  1  0      
  4 14  1  0      
  7  6  1  0      
  6  9  1  0      
  6 40  1  6      
  8  7  1  0      
  9 10  1  0      
  9 11  1  0      
  9 12  1  0      
 13 12  1  0      
 12 15  1  1      
 14 13  1  0      
 15 16  1  0      
 16 17  1  0      
 16 35  1  0      
 16 39  1  6      
 17 18  1  6      
 17 31  1  0      
 18 19  1  0      
 19 20  1  0      
 19 26  1  0      
 19 30  1  6      
 20 21  1  0      
 21 22  1  1      
 21 24  1  0      
 22 23  1  0      
 25 24  1  0      
 24 29  1  6      
 26 25  1  0      
 25 28  1  1      
 26 27  1  6      
 31 32  1  1      
 31 33  1  0      
 34 33  1  0      
 33 38  1  6      
 35 34  1  0      
 34 36  1  1      
 36 37  1  0      
 41 42  1  0      
 43 42  1  0      
 42 58  1  1      
 44 43  1  0      
 43 48  1  0      
 43 57  1  1      
 44 45  1  6      
 44 46  1  0      
 46 47  1  0      
 48 47  1  0      
 48 49  1  1      
 49 50  1  0      
 49 56  2  0      
 50 51  1  0      
 51 52  1  0      
 52 53  2  0      
 53 54  1  0      
 53 55  1  0      
M  END

>  <RackCode>
HYCPK72334

>  <Cat. No.>
HY-N2515

>  <Product Name>
Ginsenoside Rk1

>  <ROW>
E

>  <COLUMN>
19

>  <CAS No.>
494753-69-4

>  <MWt>
767.00

>  <Target>
Apoptosis; JAK; NF-¦ÊB; PI3K

>  <Saltdate>
Free Base

>  <Smiles>
C[C@]12[C@@](C[C@@H](O)[C@@]3([H])[C@]2(CC[C@@H]3C(CC/C=C(C)/C)=C)C)([H])[C@@]4([C@@](C(C)([C@@H](O[C@@]5([H])[C@@H]([C@H]([C@H](O)[C@@H](CO)O5)O)O[C@]6([H])O[C@@H]([C@@H](O)[C@H](O)[C@H]6O)CO)CC4)C)([H])CC1)C

>  <Solvent>
DMSO Solution

>  <Batch No.>
290329

>  <Quantity>
10mM  * 50uL

>  <Pathway>
Apoptosis; Epigenetics; JAK/STAT Signaling; NF-¦ÊB; PI3K/Akt/mTOR; Protein Tyrosine Kinase/RTK; Stem Cell/Wnt

>  <Synonyms>


>  <Formula>
C42H70O12

>  <Research_Area>
Cancer; Inflammation/Immunology

>  <Clinical_Information>
No Development Reported

>  <SUPPLIER>
MedChemExpress

$$$$
Untitled Document
  ChemDraw05302309392D

 32 35  0  0  0  0  0  0  0  0999 V2000
    1.0808    1.5085    0.0000 O   0  0  0  0  0  0  0  0  0  0  0  0
    1.0756    0.6835    0.0000 C   0  0  0  0  0  0  0  0  0  0  0  0
    1.7875    0.2665    0.0000 N   0  0  0  0  0  0  0  0  0  0  0  0
    1.7822   -0.5585    0.0000 C   0  0  0  0  0  0  0  0  0  0  0  0
    1.0651   -0.9664    0.0000 C   0  0  0  0  0  0  0  0  0  0  0  0
    1.0599   -1.7914    0.0000 C   0  0  0  0  0  0  0  0  0  0  0  0
    0.3428   -2.1994    0.0000 C   0  0  0  0  0  0  0  0  0  0  0  0
   -0.4087   -1.8590    0.0000 C   0  0  0  0  0  0  0  0  0  0  0  0
   -0.9646   -2.4686    0.0000 C   0  0  0  0  0  0  0  0  0  0  0  0
   -0.5566   -3.1856    0.0000 C   0  0  0  0  0  0  0  0  0  0  0  0
    0.2514   -3.0192    0.0000 S   0  0  0  0  0  0  0  0  0  0  0  0
    1.7718   -2.2084    0.0000 C   0  0  0  0  0  0  0  0  0  0  0  0
    2.4888   -1.8005    0.0000 C   0  0  0  0  0  0  0  0  0  0  0  0
    2.4941   -0.9755    0.0000 C   0  0  0  0  0  0  0  0  0  0  0  0
    3.2110   -0.5675    0.0000 O   0  0  0  0  0  0  0  0  0  0  0  0
    0.3585    0.2756    0.0000 C   0  0  0  0  0  0  0  0  0  0  0  0
   -0.3533    0.6926    0.0000 C   0  0  0  0  0  0  0  0  0  0  0  0
   -1.0704    0.2846    0.0000 C   0  0  0  0  0  0  0  0  0  0  0  0
   -1.0756   -0.5403    0.0000 C   0  0  0  0  0  0  0  0  0  0  0  0
   -1.7927   -0.9483    0.0000 N   0  0  0  0  0  0  0  0  0  0  0  0
   -2.5045   -0.5313    0.0000 N   0  0  0  0  0  0  0  0  0  0  0  0
   -2.4993    0.2937    0.0000 C   0  0  0  0  0  0  0  0  0  0  0  0
   -3.2110    0.7107    0.0000 C   0  0  0  0  0  0  0  0  0  0  0  0
   -3.2058    1.5357    0.0000 C   0  0  0  0  0  0  0  0  0  0  0  0
   -2.4888    1.9437    0.0000 C   0  0  0  0  0  0  0  0  0  0  0  0
   -2.4836    2.7686    0.0000 N   0  0  0  0  0  0  0  0  0  0  0  0
   -1.7665    3.1765    0.0000 C   0  0  0  0  0  0  0  0  0  0  0  0
   -3.1953    3.1856    0.0000 C   0  0  0  0  0  0  0  0  0  0  0  0
   -1.7770    1.5267    0.0000 C   0  0  0  0  0  0  0  0  0  0  0  0
   -1.7822    0.7017    0.0000 C   0  0  0  0  0  0  0  0  0  0  0  0
   -0.3638   -0.9574    0.0000 C   0  0  0  0  0  0  0  0  0  0  0  0
    0.3533   -0.5494    0.0000 C   0  0  0  0  0  0  0  0  0  0  0  0
  1  2  2  0      
  2  3  1  0      
  3  4  1  0      
  4  5  2  0      
  5  6  1  0      
  6  7  1  0      
  7  8  2  0      
  8  9  1  0      
  9 10  2  0      
 10 11  1  0      
  7 11  1  0      
  6 12  2  0      
 12 13  1  0      
 13 14  2  0      
  4 14  1  0      
 14 15  1  0      
  2 16  1  0      
 16 17  2  0      
 17 18  1  0      
 18 19  2  0      
 19 20  1  0      
 20 21  2  0      
 21 22  1  0      
 22 23  2  0      
 23 24  1  0      
 24 25  2  0      
 25 26  1  0      
 26 27  1  0      
 26 28  1  0      
 25 29  1  0      
 29 30  2  0      
 22 30  1  0      
 19 31  1  0      
 31 32  2  0      
 16 32  1  0      
M  END

>  <RackCode>
HYCPK72334

>  <Cat. No.>
HY-117583

>  <Product Name>
cis-BG47

>  <ROW>
F

>  <COLUMN>
19

>  <CAS No.>


>  <MWt>
442.53

>  <Target>
HDAC; Histone Methyltransferase

>  <Saltdate>


>  <Smiles>
O=C(C1=CC=C(C=C1)/N=N\C2=CC=C(C=C2)N(C)C)NC3=CC(C4=CC=CS4)=CC=C3O

>  <Solvent>
DMSO Solution

>  <Batch No.>
323783

>  <Quantity>
10mM  * 50uL

>  <Pathway>
Cell Cycle/DNA Damage; Epigenetics

>  <Synonyms>


>  <Formula>
C25H22N4O2S

>  <Research_Area>
Neurological Disease

>  <Clinical_Information>
No Development Reported

>  <SUPPLIER>
MedChemExpress

$$$$
Untitled Document
  ChemDraw11071710512D

 30 33  0  0  0  0  0  0  0  0999 V2000
   -0.0616    0.5512    0.0000 C   0  0  0  0  0  0  0  0  0  0  0  0
    0.6529    0.1387    0.0000 N   0  0  0  0  0  0  0  0  0  0  0  0
    0.6529   -0.6863    0.0000 C   0  0  0  0  0  0  0  0  0  0  0  0
   -0.0616   -1.0988    0.0000 C   0  0  0  0  0  0  0  0  0  0  0  0
   -0.7761   -0.6863    0.0000 C   0  0  0  0  0  0  0  0  0  0  0  0
   -1.4906   -1.0988    0.0000 C   0  0  0  0  0  0  0  0  0  0  0  0
   -2.2050   -0.6863    0.0000 C   0  0  0  0  0  0  0  0  0  0  0  0
   -2.2050    0.1387    0.0000 C   0  0  0  0  0  0  0  0  0  0  0  0
   -1.4906    0.5512    0.0000 C   0  0  0  0  0  0  0  0  0  0  0  0
   -0.7761    0.1387    0.0000 C   0  0  0  0  0  0  0  0  0  0  0  0
   -0.0616    1.3762    0.0000 O   0  0  0  0  0  0  0  0  0  0  0  0
   -4.2252    0.8288    0.0000 O   0  0  0  0  0  0  0  0  0  0  0  0
   -3.8127    1.5433    0.0000 N   0  0  0  0  0  0  0  0  0  0  0  0
   -3.0057    1.3717    0.0000 C   0  0  0  0  0  0  0  0  0  0  0  0
   -2.9195    0.5512    0.0000 C   0  0  0  0  0  0  0  0  0  0  0  0
   -3.6732    0.2157    0.0000 C   0  0  0  0  0  0  0  0  0  0  0  0
   -3.8447   -0.5913    0.0000 C   0  0  0  0  0  0  0  0  0  0  0  0
   -2.3926    1.9238    0.0000 C   0  0  0  0  0  0  0  0  0  0  0  0
    1.3673    0.5512    0.0000 C   0  0  0  0  0  0  0  0  0  0  0  0
    2.0818   -0.6863    0.0000 C   0  0  0  0  0  0  0  0  0  0  0  0
    2.0818    0.1387    0.0000 C   0  0  0  0  0  0  0  0  0  0  0  0
    2.7963    0.5512    0.0000 C   0  0  0  0  0  0  0  0  0  0  0  0
    3.5107    0.1387    0.0000 C   0  0  0  0  0  0  0  0  0  0  0  0
    3.5107   -0.6863    0.0000 C   0  0  0  0  0  0  0  0  0  0  0  0
    2.7963   -1.0988    0.0000 N   0  0  0  0  0  0  0  0  0  0  0  0
    1.3673   -1.0988    0.0000 O   0  0  0  0  0  0  0  0  0  0  0  0
    4.2252   -1.0988    0.0000 C   0  0  0  0  0  0  0  0  0  0  0  0
    2.7963    1.3762    0.0000 C   0  0  0  0  0  0  0  0  0  0  0  0
   -1.4906    1.3762    0.0000 Cl  0  0  0  0  0  0  0  0  0  0  0  0
   -1.4906   -1.9238    0.0000 Cl  0  0  0  0  0  0  0  0  0  0  0  0
  1  2  1  0      
  2  3  1  0      
  3  4  1  0      
  4  5  1  0      
  5  6  1  0      
  6  7  2  0      
  7  8  1  0      
  8  9  2  0      
  9 10  1  0      
  1 10  1  0      
  5 10  2  0      
  1 11  2  0      
 12 13  1  0      
 13 14  2  0      
 14 15  1  0      
 15 16  2  0      
 12 16  1  0      
 16 17  1  0      
 14 18  1  0      
  8 15  1  0      
 20 21  1  0      
 21 22  2  0      
 22 23  1  0      
 23 24  2  0      
 24 25  1  0      
 20 25  1  0      
 20 26  2  0      
 24 27  1  0      
 22 28  1  0      
 19 21  1  0      
  2 19  1  0      
  9 29  1  0      
  6 30  1  0      
M  END

>  <RackCode>
HYCPK72334

>  <Cat. No.>
HY-103682

>  <Product Name>
PF-06726304

>  <ROW>
G

>  <COLUMN>
19

>  <CAS No.>
1616287-82-1

>  <MWt>
446.33

>  <Target>
Histone Methyltransferase

>  <Saltdate>
Free Base

>  <Smiles>
O=C1N(CC2=C(C)C=C(C)NC2=O)CCC3=C1C(Cl)=C(C4=C(C)ON=C4C)C=C3Cl

>  <Solvent>
DMSO Solution

>  <Batch No.>
27239

>  <Quantity>
10mM  * 50uL

>  <Pathway>
Epigenetics

>  <Synonyms>


>  <Formula>
C22H21Cl2N3O3

>  <Research_Area>
Cancer

>  <Clinical_Information>
No Development Reported

>  <SUPPLIER>
MedChemExpress

$$$$
Untitled Document
  ChemDraw09041709552D

 29 32  0  0  0  0  0  0  0  0999 V2000
    3.2151    1.8563    0.0000 C   0  0  0  0  0  0  0  0  0  0  0  0
    2.5006    1.4438    0.0000 C   0  0  0  0  0  0  0  0  0  0  0  0
    1.7862    1.8563    0.0000 C   0  0  0  0  0  0  0  0  0  0  0  0
    1.7862    2.6813    0.0000 C   0  0  0  0  0  0  0  0  0  0  0  0
    2.5006    3.0938    0.0000 C   0  0  0  0  0  0  0  0  0  0  0  0
    3.2151    2.6813    0.0000 N   0  0  0  0  0  0  0  0  0  0  0  0
    1.0717    1.4438    0.0000 C   0  0  0  0  0  0  0  0  0  0  0  0
    1.0717    0.6187    0.0000 O   0  0  0  0  0  0  0  0  0  0  0  0
    0.3572    1.8563    0.0000 O   0  0  0  0  0  0  0  0  0  0  0  0
    2.5006    0.6187    0.0000 N   0  0  0  0  0  0  0  0  0  0  0  0
    1.7862    0.2062    0.0000 C   0  0  0  0  0  0  0  0  0  0  0  0
    1.7862   -0.6188    0.0000 C   0  0  0  0  0  0  0  0  0  0  0  0
    2.5006   -1.0313    0.0000 C   0  0  0  0  0  0  0  0  0  0  0  0
    2.5006   -1.8563    0.0000 C   0  0  0  0  0  0  0  0  0  0  0  0
    1.7862   -2.2688    0.0000 C   0  0  0  0  0  0  0  0  0  0  0  0
    1.0717   -1.8563    0.0000 C   0  0  0  0  0  0  0  0  0  0  0  0
    0.3572   -2.2688    0.0000 C   0  0  0  0  0  0  0  0  0  0  0  0
   -0.3572   -1.8563    0.0000 C   0  0  0  0  0  0  0  0  0  0  0  0
   -0.3572   -1.0313    0.0000 C   0  0  0  0  0  0  0  0  0  0  0  0
    0.3572   -0.6188    0.0000 C   0  0  0  0  0  0  0  0  0  0  0  0
    1.0717   -1.0313    0.0000 C   0  0  0  0  0  0  0  0  0  0  0  0
   -1.0717   -2.2688    0.0000 N   0  0  0  0  0  0  0  0  0  0  0  0
   -1.7862   -1.8563    0.0000 C   0  0  0  0  0  0  0  0  0  0  0  0
   -2.5006   -2.2688    0.0000 C   0  0  0  0  0  0  0  0  0  0  0  0
   -3.2151   -1.8563    0.0000 C   0  0  0  0  0  0  0  0  0  0  0  0
   -3.2151   -1.0313    0.0000 C   0  0  0  0  0  0  0  0  0  0  0  0
   -2.5006   -0.6188    0.0000 C   0  0  0  0  0  0  0  0  0  0  0  0
   -1.7862   -1.0313    0.0000 C   0  0  0  0  0  0  0  0  0  0  0  0
   -1.0717   -3.0938    0.0000 C   0  0  0  0  0  0  0  0  0  0  0  0
  1  2  1  0      
  2  3  2  0      
  3  4  1  0      
  4  5  2  0      
  5  6  1  0      
  1  6  2  0      
  7  8  2  0      
  7  9  1  0      
  3  7  1  0      
 12 13  1  0      
 13 14  1  0      
 14 15  1  0      
 15 16  1  0      
 16 17  1  0      
 17 18  2  0      
 18 19  1  0      
 19 20  2  0      
 20 21  1  0      
 12 21  1  0      
 16 21  2  0      
 23 24  1  0      
 24 25  2  0      
 25 26  1  0      
 26 27  2  0      
 27 28  1  0      
 23 28  2  0      
 22 23  1  0      
 22 29  1  0      
 18 22  1  0      
 12 11  1  6      
 10 11  1  0      
  2 10  1  0      
M  END

>  <RackCode>
HYCPK72334

>  <Cat. No.>
HY-104048

>  <Product Name>
QC6352

>  <ROW>
H

>  <COLUMN>
19

>  <CAS No.>
1851373-36-8

>  <MWt>
387.47

>  <Target>
Histone Demethylase

>  <Saltdate>
Free Acid

>  <Smiles>
O=C(C1=C(NC[C@@H]2CCCC3=C2C=CC(N(C)C4=CC=CC=C4)=C3)C=NC=C1)O

>  <Solvent>
DMSO Solution

>  <Batch No.>
264209

>  <Quantity>
10mM  * 50uL

>  <Pathway>
Epigenetics

>  <Synonyms>


>  <Formula>
C24H25N3O2

>  <Research_Area>
Cancer

>  <Clinical_Information>
No Development Reported

>  <SUPPLIER>
MedChemExpress

$$$$
Untitled Document
  ChemDraw11252015142D

 21 23  0  0  0  0  0  0  0  0999 V2000
    1.3173    0.5917    0.0000 C   0  0  0  0  0  0  0  0  0  0  0  0
    1.6529    1.3453    0.0000 O   0  0  0  0  0  0  0  0  0  0  0  0
    1.8022   -0.0758    0.0000 C   0  0  0  0  0  0  0  0  0  0  0  0
    1.5473   -0.8604    0.0000 C   0  0  0  0  0  0  0  0  0  0  0  0
    2.2147   -1.3453    0.0000 C   0  0  0  0  0  0  0  0  0  0  0  0
    2.8822   -0.8604    0.0000 C   0  0  0  0  0  0  0  0  0  0  0  0
    2.6272   -0.0758    0.0000 S   0  0  0  0  0  0  0  0  0  0  0  0
    3.6668   -1.1153    0.0000 Cl  0  0  0  0  0  0  0  0  0  0  0  0
   -0.0552    1.1185    0.0000 S   0  0  0  0  0  0  0  0  0  0  0  0
   -0.8089    0.7830    0.0000 C   0  0  0  0  0  0  0  0  0  0  0  0
   -0.7227   -0.0375    0.0000 N   0  0  0  0  0  0  0  0  0  0  0  0
    0.0843   -0.2091    0.0000 C   0  0  0  0  0  0  0  0  0  0  0  0
    0.4968    0.5054    0.0000 C   0  0  0  0  0  0  0  0  0  0  0  0
   -1.5234    1.1955    0.0000 N   0  0  0  0  0  0  0  0  0  0  0  0
   -2.2378    0.7830    0.0000 C   0  0  0  0  0  0  0  0  0  0  0  0
   -2.2378   -0.0420    0.0000 C   0  0  0  0  0  0  0  0  0  0  0  0
   -2.9523   -0.4545    0.0000 C   0  0  0  0  0  0  0  0  0  0  0  0
   -3.6668   -0.0420    0.0000 C   0  0  0  0  0  0  0  0  0  0  0  0
   -3.6668    0.7830    0.0000 C   0  0  0  0  0  0  0  0  0  0  0  0
   -2.9523    1.1955    0.0000 C   0  0  0  0  0  0  0  0  0  0  0  0
    0.4199   -0.9627    0.0000 N   0  0  0  0  0  0  0  0  0  0  0  0
  1  2  2  0      
  3  4  2  0      
  4  5  1  0      
  5  6  2  0      
  6  7  1  0      
  3  7  1  0      
  6  8  1  0      
  1  3  1  0      
  9 10  1  0      
 10 11  2  0      
 11 12  1  0      
 12 13  2  0      
  9 13  1  0      
 15 16  1  0      
 16 17  2  0      
 17 18  1  0      
 18 19  2  0      
 19 20  1  0      
 15 20  2  0      
 14 15  1  0      
 10 14  1  0      
 12 21  1  0      
  1 13  1  0      
M  END

>  <RackCode>
HYCPK72334

>  <Cat. No.>
HY-137756

>  <Product Name>
JAK2-IN-6

>  <ROW>
I

>  <COLUMN>
19

>  <CAS No.>
353512-04-6

>  <MWt>
335.83

>  <Target>
JAK

>  <Saltdate>


>  <Smiles>
O=C(C1=C(N)N=C(NC2=CC=CC=C2)S1)C3=CC=C(Cl)S3

>  <Solvent>
DMSO Solution

>  <Batch No.>
259048

>  <Quantity>
10mM  * 50uL

>  <Pathway>
Epigenetics; JAK/STAT Signaling; Protein Tyrosine Kinase/RTK; Stem Cell/Wnt

>  <Synonyms>


>  <Formula>
C14H10ClN3OS2

>  <Research_Area>
Cancer

>  <Clinical_Information>
No Development Reported

>  <SUPPLIER>
MedChemExpress

$$$$
Untitled Document
  ChemDraw12122215072D

 33 34  0  0  0  0  0  0  0  0999 V2000
   -1.0942    0.0518    0.0000 N   0  0  0  0  0  0  0  0  0  0  0  0
   -1.0080   -0.7687    0.0000 C   0  0  0  0  0  0  0  0  0  0  0  0
   -1.7616   -1.1043    0.0000 C   0  0  0  0  0  0  0  0  0  0  0  0
   -2.3136   -0.4912    0.0000 C   0  0  0  0  0  0  0  0  0  0  0  0
   -3.1386   -0.4912    0.0000 C   0  0  0  0  0  0  0  0  0  0  0  0
   -3.5511    0.2233    0.0000 C   0  0  0  0  0  0  0  0  0  0  0  0
   -3.1386    0.9377    0.0000 C   0  0  0  0  0  0  0  0  0  0  0  0
   -2.3136    0.9377    0.0000 C   0  0  0  0  0  0  0  0  0  0  0  0
   -1.9011    0.2233    0.0000 C   0  0  0  0  0  0  0  0  0  0  0  0
   -0.2935   -1.1812    0.0000 C   0  0  0  0  0  0  0  0  0  0  0  0
   -0.2935   -2.0062    0.0000 O   0  0  0  0  0  0  0  0  0  0  0  0
    0.4210   -0.7687    0.0000 N   0  0  0  0  0  0  0  0  0  0  0  0
    1.1354   -1.1812    0.0000 C   0  0  0  0  0  0  0  0  0  0  0  0
    1.8498   -0.7687    0.0000 C   0  0  0  0  0  0  0  0  0  0  0  0
    2.5643   -0.3562    0.0000 C   0  0  0  0  0  0  0  0  0  0  0  0
    3.2787    0.0563    0.0000 C   0  0  0  0  0  0  0  0  0  0  0  0
    3.9932   -0.3562    0.0000 C   0  0  0  0  0  0  0  0  0  0  0  0
    4.7077    0.0563    0.0000 C   0  0  0  0  0  0  0  0  0  0  0  0
    4.7077    0.8812    0.0000 C   0  0  0  0  0  0  0  0  0  0  0  0
    3.9932    1.2937    0.0000 C   0  0  0  0  0  0  0  0  0  0  0  0
    3.2787    0.8812    0.0000 C   0  0  0  0  0  0  0  0  0  0  0  0
    5.4221    1.2937    0.0000 C   0  0  0  0  0  0  0  0  0  0  0  0
    5.4221    2.1187    0.0000 O   0  0  0  0  0  0  0  0  0  0  0  0
    6.1365    0.8812    0.0000 N   0  0  0  0  0  0  0  0  0  0  0  0
    6.8510    1.2937    0.0000 O   0  0  0  0  0  0  0  0  0  0  0  0
   -4.3761    0.2233    0.0000 O   0  0  0  0  0  0  0  0  0  0  0  0
   -4.7886   -0.4912    0.0000 C   0  0  0  0  0  0  0  0  0  0  0  0
   -5.6135   -0.4912    0.0000 C   0  0  0  0  0  0  0  0  0  0  0  0
   -6.0260   -1.2056    0.0000 N   0  0  0  0  0  0  0  0  0  0  0  0
   -6.8510   -1.2056    0.0000 C   0  0  0  0  0  0  0  0  0  0  0  0
   -5.6135   -1.9201    0.0000 C   0  0  0  0  0  0  0  0  0  0  0  0
    2.3703   -2.1187    0.0000 H   0  0  0  0  0  0  0  0  0  0  0  0
    3.1953   -2.1187    0.0000 Cl  0  0  0  0  0  0  0  0  0  0  0  0
  1  2  1  0      
  2  3  2  0      
  3  4  1  0      
  4  5  1  0      
  5  6  2  0      
  6  7  1  0      
  7  8  2  0      
  8  9  1  0      
  1  9  1  0      
  4  9  2  0      
 10 11  2  0      
 10 12  1  0      
  2 10  1  0      
 13 14  1  0      
 14 15  3  0      
 16 17  1  0      
 17 18  2  0      
 18 19  1  0      
 19 20  2  0      
 20 21  1  0      
 16 21  2  0      
 22 23  2  0      
 24 25  1  0      
 22 24  1  0      
 19 22  1  0      
 15 16  1  0      
 12 13  1  0      
 27 28  1  0      
 26 27  1  0      
 29 30  1  0      
 29 31  1  0      
 28 29  1  0      
  6 26  1  0      
 32 33  1  0      
M  END

>  <RackCode>
HYCPK72334

>  <Cat. No.>
HY-19754A

>  <Product Name>
CRA-026440 (hydrochloride)

>  <ROW>
J

>  <COLUMN>
19

>  <CAS No.>
847459-98-7

>  <MWt>
456.92

>  <Target>
Apoptosis; HDAC

>  <Saltdate>
Hydrochloride

>  <Smiles>
O=C(C(N1)=CC2=C1C=CC(OCCN(C)C)=C2)NCC#CC3=CC=C(C(NO)=O)C=C3.[H]Cl

>  <Solvent>
DMSO Solution

>  <Batch No.>
245051

>  <Quantity>
10mM  * 50uL

>  <Pathway>
Apoptosis; Cell Cycle/DNA Damage; Epigenetics

>  <Synonyms>


>  <Formula>
C23H25ClN4O4

>  <Research_Area>
Cancer

>  <Clinical_Information>
No Development Reported

>  <SUPPLIER>
MedChemExpress

$$$$
Untitled Document
  ChemDraw06121615092D

 28 30  0  0  0  0  0  0  0  0999 V2000
   -0.8613   -2.3501    0.0000 H   0  0  0  0  0  0  0  0  0  0  0  0
   -0.0363   -2.3501    0.0000 Cl  0  0  0  0  0  0  0  0  0  0  0  0
   -2.0390    1.1123    0.0000 N   0  0  0  0  0  0  0  0  0  0  0  0
   -1.3715    0.6274    0.0000 C   0  0  0  0  0  0  0  0  0  0  0  0
   -0.5647    0.7989    0.0000 C   0  0  0  0  0  0  0  0  0  0  0  0
   -0.0126    0.1859    0.0000 C   0  0  0  0  0  0  0  0  0  0  0  0
   -0.2675   -0.5987    0.0000 C   0  0  0  0  0  0  0  0  0  0  0  0
   -1.0745   -0.7703    0.0000 C   0  0  0  0  0  0  0  0  0  0  0  0
   -1.6265   -0.1572    0.0000 C   0  0  0  0  0  0  0  0  0  0  0  0
   -2.4517   -0.1572    0.0000 C   0  0  0  0  0  0  0  0  0  0  0  0
   -3.0038   -0.7703    0.0000 C   0  0  0  0  0  0  0  0  0  0  0  0
   -3.8107   -0.5987    0.0000 C   0  0  0  0  0  0  0  0  0  0  0  0
   -4.0656    0.1859    0.0000 C   0  0  0  0  0  0  0  0  0  0  0  0
   -3.5136    0.7989    0.0000 C   0  0  0  0  0  0  0  0  0  0  0  0
   -2.7067    0.6274    0.0000 C   0  0  0  0  0  0  0  0  0  0  0  0
    0.2845   -1.2118    0.0000 C   0  0  0  0  0  0  0  0  0  0  0  0
    1.0915   -1.0403    0.0000 N   0  0  0  0  0  0  0  0  0  0  0  0
    1.6748   -1.6237    0.0000 C   0  0  0  0  0  0  0  0  0  0  0  0
    2.4718   -1.4101    0.0000 C   0  0  0  0  0  0  0  0  0  0  0  0
    2.6854   -0.6133    0.0000 C   0  0  0  0  0  0  0  0  0  0  0  0
    3.4822   -0.3997    0.0000 C   0  0  0  0  0  0  0  0  0  0  0  0
    4.0656   -0.9830    0.0000 C   0  0  0  0  0  0  0  0  0  0  0  0
    3.8521   -1.7800    0.0000 C   0  0  0  0  0  0  0  0  0  0  0  0
    3.0553   -1.9935    0.0000 C   0  0  0  0  0  0  0  0  0  0  0  0
    2.1019   -0.0300    0.0000 O   0  0  0  0  0  0  0  0  0  0  0  0
    1.3050   -0.2434    0.0000 C   0  0  0  0  0  0  0  0  0  0  0  0
   -2.0390    1.9374    0.0000 C   0  0  0  0  0  0  0  0  0  0  0  0
   -2.7537    2.3501    0.0000 C   0  0  0  0  0  0  0  0  0  0  0  0
  1  2  1  0      
  3  4  1  0      
  4  5  1  0      
  5  6  2  0      
  6  7  1  0      
  7  8  2  0      
  8  9  1  0      
  4  9  2  0      
  9 10  1  0      
 10 11  1  0      
 11 12  2  0      
 12 13  1  0      
 13 14  2  0      
 14 15  1  0      
 10 15  2  0      
  3 15  1  0      
 16 17  1  0      
  7 16  1  0      
 19 20  1  0      
 20 21  2  0      
 21 22  1  0      
 22 23  2  0      
 23 24  1  0      
 19 24  2  0      
 25 26  1  0      
 20 25  1  0      
 18 19  1  0      
 17 18  1  0      
 27 28  1  0      
  3 27  1  0      
M  END

>  <RackCode>
HYCPK72334

>  <Cat. No.>
HY-100025A

>  <Product Name>
HLCL-61 (hydrochloride)

>  <ROW>
K

>  <COLUMN>
19

>  <CAS No.>
1158279-20-9

>  <MWt>
380.91

>  <Target>
Apoptosis; Histone Methyltransferase

>  <Saltdate>
Hydrochloride

>  <Smiles>
[H]Cl.COC1=CC=CC=C1CNCC2=CC3=C(C=C2)N(CC)C4=C3C=CC=C4

>  <Solvent>
DMSO Solution

>  <Batch No.>
20611

>  <Quantity>
10mM  * 50uL

>  <Pathway>
Apoptosis; Epigenetics

>  <Synonyms>


>  <Formula>
C23H25ClN2O

>  <Research_Area>
Cancer

>  <Clinical_Information>
No Development Reported

>  <SUPPLIER>
MedChemExpress

$$$$
Untitled Document
  ChemDraw04062211222D

 23 25  0  0  0  0  0  0  0  0999 V2000
   -1.7387    2.0159    0.0000 C   0  0  0  0  0  0  0  0  0  0  0  0
   -1.9936    1.2313    0.0000 N   0  0  0  0  0  0  0  0  0  0  0  0
   -1.5087    0.5638    0.0000 C   0  0  0  0  0  0  0  0  0  0  0  0
   -1.9936   -0.1036    0.0000 C   0  0  0  0  0  0  0  0  0  0  0  0
   -1.7387   -0.8882    0.0000 C   0  0  0  0  0  0  0  0  0  0  0  0
   -0.9317   -1.0597    0.0000 N   0  0  0  0  0  0  0  0  0  0  0  0
   -0.3797   -0.4467    0.0000 C   0  0  0  0  0  0  0  0  0  0  0  0
    0.4273   -0.6182    0.0000 C   0  0  0  0  0  0  0  0  0  0  0  0
    0.6822   -1.4028    0.0000 C   0  0  0  0  0  0  0  0  0  0  0  0
    1.4892   -1.5743    0.0000 C   0  0  0  0  0  0  0  0  0  0  0  0
    2.0412   -0.9612    0.0000 C   0  0  0  0  0  0  0  0  0  0  0  0
    2.8482   -1.1328    0.0000 C   0  0  0  0  0  0  0  0  0  0  0  0
    3.1031   -1.9174    0.0000 O   0  0  0  0  0  0  0  0  0  0  0  0
    3.4002   -0.5197    0.0000 N   0  0  0  0  0  0  0  0  0  0  0  0
    4.2072   -0.6912    0.0000 O   0  0  0  0  0  0  0  0  0  0  0  0
    0.1302   -2.0159    0.0000 C   0  0  0  0  0  0  0  0  0  0  0  0
   -0.6768   -1.8444    0.0000 C   0  0  0  0  0  0  0  0  0  0  0  0
   -2.7783    0.1513    0.0000 C   0  0  0  0  0  0  0  0  0  0  0  0
   -2.7783    0.9763    0.0000 C   0  0  0  0  0  0  0  0  0  0  0  0
   -3.4927    1.3888    0.0000 C   0  0  0  0  0  0  0  0  0  0  0  0
   -4.2072    0.9763    0.0000 C   0  0  0  0  0  0  0  0  0  0  0  0
   -4.2072    0.1513    0.0000 C   0  0  0  0  0  0  0  0  0  0  0  0
   -3.4927   -0.2612    0.0000 C   0  0  0  0  0  0  0  0  0  0  0  0
  1  2  1  0      
  2  3  1  0      
  3  4  2  0      
  4  5  1  0      
  5  6  1  0      
  6  7  1  0      
  7  8  1  0      
  8  9  1  0      
  9 10  1  0      
 10 11  2  0      
 11 12  1  0      
 12 13  2  0      
 12 14  1  0      
 14 15  1  0      
  9 16  1  0      
 16 17  1  0      
  6 17  1  0      
  4 18  1  0      
 18 19  2  0      
  2 19  1  0      
 19 20  1  0      
 20 21  2  0      
 21 22  1  0      
 22 23  2  0      
 18 23  1  0      
M  END

>  <RackCode>
HYCPK72334

>  <Cat. No.>
HY-144779

>  <Product Name>
HDAC10-IN-1

>  <ROW>
L

>  <COLUMN>
19

>  <CAS No.>


>  <MWt>
313.39

>  <Target>
Autophagy; HDAC

>  <Saltdate>


>  <Smiles>
CN1C=C(C2=C1C=CC=C2)CN3CCC(CC3)/C=C/C(NO)=O

>  <Solvent>
DMSO Solution

>  <Batch No.>
307422

>  <Quantity>
10mM  * 50uL

>  <Pathway>
Autophagy; Cell Cycle/DNA Damage; Epigenetics

>  <Synonyms>


>  <Formula>
C18H23N3O2

>  <Research_Area>
Cancer

>  <Clinical_Information>
No Development Reported

>  <SUPPLIER>
MedChemExpress

$$$$
Untitled Document
  ChemDraw07162016572D

 31 33  0  0  0  0  0  0  0  0999 V2000
   -1.6619   -1.3798    0.0000 N   0  0  0  0  0  0  0  0  0  0  0  0
   -1.1099   -0.7667    0.0000 C   0  0  0  0  0  0  0  0  0  0  0  0
   -0.3562   -1.1023    0.0000 C   0  0  0  0  0  0  0  0  0  0  0  0
   -0.4424   -1.9228    0.0000 C   0  0  0  0  0  0  0  0  0  0  0  0
   -1.2494   -2.0943    0.0000 C   0  0  0  0  0  0  0  0  0  0  0  0
    0.3583   -0.6898    0.0000 C   0  0  0  0  0  0  0  0  0  0  0  0
    0.3583    0.1352    0.0000 O   0  0  0  0  0  0  0  0  0  0  0  0
    1.0727   -1.1023    0.0000 N   0  0  0  0  0  0  0  0  0  0  0  0
   -2.4824   -1.2936    0.0000 C   0  0  0  0  0  0  0  0  0  0  0  0
   -2.8178   -0.5399    0.0000 C   0  0  0  0  0  0  0  0  0  0  0  0
   -3.6383   -0.4537    0.0000 C   0  0  0  0  0  0  0  0  0  0  0  0
   -3.9739    0.3000    0.0000 C   0  0  0  0  0  0  0  0  0  0  0  0
   -3.4890    0.9674    0.0000 C   0  0  0  0  0  0  0  0  0  0  0  0
   -2.6686    0.8812    0.0000 C   0  0  0  0  0  0  0  0  0  0  0  0
   -2.3330    0.1275    0.0000 C   0  0  0  0  0  0  0  0  0  0  0  0
   -3.8245    1.7211    0.0000 C   0  0  0  0  0  0  0  0  0  0  0  0
   -3.3396    2.3886    0.0000 F   0  0  0  0  0  0  0  0  0  0  0  0
   -4.1601    2.4748    0.0000 F   0  0  0  0  0  0  0  0  0  0  0  0
   -4.6450    1.8074    0.0000 F   0  0  0  0  0  0  0  0  0  0  0  0
   -1.2814    0.0402    0.0000 C   0  0  0  0  0  0  0  0  0  0  0  0
    1.7872   -0.6898    0.0000 C   0  0  0  0  0  0  0  0  0  0  0  0
    2.5017   -1.9273    0.0000 C   0  0  0  0  0  0  0  0  0  0  0  0
    2.5017   -1.1023    0.0000 C   0  0  0  0  0  0  0  0  0  0  0  0
    3.2161   -0.6898    0.0000 C   0  0  0  0  0  0  0  0  0  0  0  0
    3.9305   -1.1023    0.0000 C   0  0  0  0  0  0  0  0  0  0  0  0
    3.9305   -1.9273    0.0000 C   0  0  0  0  0  0  0  0  0  0  0  0
    3.2161   -2.3398    0.0000 N   0  0  0  0  0  0  0  0  0  0  0  0
    1.7872   -2.3398    0.0000 O   0  0  0  0  0  0  0  0  0  0  0  0
    4.6450   -2.3398    0.0000 C   0  0  0  0  0  0  0  0  0  0  0  0
    3.2161    0.1352    0.0000 C   0  0  0  0  0  0  0  0  0  0  0  0
    0.1707   -2.4748    0.0000 C   0  0  0  0  0  0  0  0  0  0  0  0
  1  2  1  0      
  2  3  2  0      
  3  4  1  0      
  4  5  2  0      
  1  5  1  0      
  6  7  2  0      
  6  8  1  0      
  3  6  1  0      
 10 11  1  0      
 11 12  2  0      
 12 13  1  0      
 13 14  2  0      
 14 15  1  0      
 10 15  2  0      
 16 17  1  0      
 16 18  1  0      
 16 19  1  0      
 13 16  1  0      
  9 10  1  0      
  1  9  1  0      
  2 20  1  0      
 22 23  1  0      
 23 24  2  0      
 24 25  1  0      
 25 26  2  0      
 26 27  1  0      
 22 27  1  0      
 22 28  2  0      
 26 29  1  0      
 24 30  1  0      
 21 23  1  0      
  8 21  1  0      
  4 31  1  0      
M  END

>  <RackCode>
HYCPK72334

>  <Cat. No.>
HY-131246

>  <Product Name>
DM-01

>  <ROW>
M

>  <COLUMN>
19

>  <CAS No.>
2355280-00-9

>  <MWt>
431.45

>  <Target>
Histone Methyltransferase

>  <Saltdate>
Free Base

>  <Smiles>
O=C(C1=C(C)N(CC2=CC=C(C(F)(F)F)C=C2)C=C1C)NCC3=C(C)C=C(C)NC3=O

>  <Solvent>
DMSO Solution

>  <Batch No.>
79341

>  <Quantity>
10mM  * 50uL

>  <Pathway>
Epigenetics

>  <Synonyms>


>  <Formula>
C23H24F3N3O2

>  <Research_Area>
Cancer

>  <Clinical_Information>
No Development Reported

>  <SUPPLIER>
MedChemExpress

$$$$
Untitled Document
  ChemDraw01192110102D

 10 10  0  0  0  0  0  0  0  0999 V2000
    0.7145   -0.2062    0.0000 Se  0  0  0  0  0  0  0  0  0  0  0  0
    1.4289   -0.6187    0.0000 C   0  0  0  0  0  0  0  0  0  0  0  0
    2.1433   -1.0313    0.0000 N   0  0  0  0  0  0  0  0  0  0  0  0
   -0.0000   -0.6187    0.0000 C   0  0  0  0  0  0  0  0  0  0  0  0
   -0.7145   -0.2062    0.0000 C   0  0  0  0  0  0  0  0  0  0  0  0
   -1.4289   -0.6187    0.0000 C   0  0  0  0  0  0  0  0  0  0  0  0
   -2.1433   -0.2062    0.0000 C   0  0  0  0  0  0  0  0  0  0  0  0
   -2.1433    0.6187    0.0000 C   0  0  0  0  0  0  0  0  0  0  0  0
   -1.4289    1.0313    0.0000 C   0  0  0  0  0  0  0  0  0  0  0  0
   -0.7145    0.6187    0.0000 C   0  0  0  0  0  0  0  0  0  0  0  0
  1  2  1  0      
  2  3  3  0      
  5  6  1  0      
  6  7  2  0      
  7  8  1  0      
  8  9  2  0      
  9 10  1  0      
  5 10  2  0      
  4  5  1  0      
  1  4  1  0      
M  END

>  <RackCode>
HYCPK72334

>  <Cat. No.>
HY-131991

>  <Product Name>
Benzyl selenocyanate

>  <ROW>
N

>  <COLUMN>
19

>  <CAS No.>
4671-93-6

>  <MWt>
196.11

>  <Target>
DNA Methyltransferase

>  <Saltdate>


>  <Smiles>
N#C[Se]CC1=CC=CC=C1

>  <Solvent>
DMSO Solution

>  <Batch No.>
275349

>  <Quantity>
10mM  * 50uL

>  <Pathway>
Epigenetics

>  <Synonyms>


>  <Formula>
C8H7NSe

>  <Research_Area>
Cancer

>  <Clinical_Information>
No Development Reported

>  <SUPPLIER>
MedChemExpress

$$$$
Untitled Document
  ChemDraw03231610212D

 38 41  0  0  0  0  0  0  0  0999 V2000
   -3.6901   -2.4218    0.0000 C   0  0  0  0  0  0  0  0  0  0  0  0
   -3.6901   -1.5968    0.0000 C   0  0  0  0  0  0  0  0  0  0  0  0
   -2.9757   -1.1843    0.0000 C   0  0  0  0  0  0  0  0  0  0  0  0
   -2.9757   -2.8343    0.0000 C   0  0  0  0  0  0  0  0  0  0  0  0
   -2.5632   -3.5487    0.0000 C   0  0  0  0  0  0  0  0  0  0  0  0
   -3.3882   -3.5487    0.0000 C   0  0  0  0  0  0  0  0  0  0  0  0
   -2.2612   -2.4218    0.0000 C   0  0  0  0  0  0  0  0  0  0  0  0
   -1.5467   -2.8343    0.0000 C   0  0  0  0  0  0  0  0  0  0  0  0
   -0.8323   -2.4218    0.0000 C   0  0  0  0  0  0  0  0  0  0  0  0
   -0.8323   -1.5968    0.0000 C   0  0  0  0  0  0  0  0  0  0  0  0
   -0.1178   -1.1843    0.0000 C   0  0  0  0  0  0  0  0  0  0  0  0
   -0.1178   -2.0093    0.0000 C   0  0  0  0  0  0  0  0  0  0  0  0
    0.6668   -1.4392    0.0000 C   0  0  0  0  0  0  0  0  0  0  0  0
    1.1518   -0.7718    0.0000 C   0  0  0  0  0  0  0  0  0  0  0  0
    0.6668   -0.1043    0.0000 C   0  0  0  0  0  0  0  0  0  0  0  0
    0.9218    0.6803    0.0000 C   0  0  0  0  0  0  0  0  0  0  0  0
    1.7288    0.8518    0.0000 C   0  0  0  0  0  0  0  0  0  0  0  0
    1.9837    1.6364    0.0000 C   0  0  0  0  0  0  0  0  0  0  0  0
    2.7907    1.8080    0.0000 C   0  0  0  0  0  0  0  0  0  0  0  0
    3.0456    2.5926    0.0000 C   0  0  0  0  0  0  0  0  0  0  0  0
    3.8526    2.7641    0.0000 C   0  0  0  0  0  0  0  0  0  0  0  0
    2.4936    3.2057    0.0000 C   0  0  0  0  0  0  0  0  0  0  0  0
    0.3697    1.2934    0.0000 C   0  0  0  0  0  0  0  0  0  0  0  0
   -0.1178   -0.3593    0.0000 C   0  0  0  0  0  0  0  0  0  0  0  0
   -0.1178    0.4657    0.0000 C   0  0  0  0  0  0  0  0  0  0  0  0
   -0.8323    0.0532    0.0000 C   0  0  0  0  0  0  0  0  0  0  0  0
   -1.5467   -0.3593    0.0000 C   0  0  0  0  0  0  0  0  0  0  0  0
   -1.5467   -1.1843    0.0000 C   0  0  0  0  0  0  0  0  0  0  0  0
   -2.2612   -1.5968    0.0000 C   0  0  0  0  0  0  0  0  0  0  0  0
   -2.2612   -0.7718    0.0000 C   0  0  0  0  0  0  0  0  0  0  0  0
    4.1075    3.5487    0.0000 O   0  0  0  0  0  0  0  0  0  0  0  0
    4.4046    2.1510    0.0000 O   0  0  0  0  0  0  0  0  0  0  0  0
    1.4317    2.2495    0.0000 O   0  0  0  0  0  0  0  0  0  0  0  0
    0.9218   -2.2238    0.0000 O   0  0  0  0  0  0  0  0  0  0  0  0
   -2.2612    0.0532    0.0000 O   0  0  0  0  0  0  0  0  0  0  0  0
   -4.4046   -2.8343    0.0000 O   0  0  0  0  0  0  0  0  0  0  0  0
   -0.1178   -2.8343    0.0000 O   0  0  0  0  0  0  0  0  0  0  0  0
   -2.2612   -3.2468    0.0000 H   0  0  0  0  0  0  0  0  0  0  0  0
  1  2  1  0      
  2  3  1  0      
  1  4  1  0      
  4  5  1  0      
  4  6  1  0      
  4  7  1  0      
  7  8  1  0      
  8  9  1  0      
  9 10  1  0      
 10 11  1  0      
 11 12  1  6      
 11 13  1  0      
 13 14  1  0      
 15 14  1  1      
 15 16  1  0      
 16 17  1  0      
 17 18  1  0      
 18 19  1  0      
 19 20  1  0      
 20 21  1  0      
 20 22  1  0      
 16 23  1  6      
 15 24  1  0      
 11 24  1  0      
 24 25  1  1      
 24 26  1  0      
 26 27  1  0      
 27 28  1  0      
 10 28  2  0      
 28 29  1  0      
  3 29  1  0      
  7 29  1  0      
 29 30  1  1      
 21 31  2  0      
 21 32  1  0      
 18 33  2  0      
 13 34  2  0      
 27 35  2  0      
  1 36  2  0      
  9 37  1  1      
  7 38  1  6      
M  END

>  <RackCode>
HYCPK72334

>  <Cat. No.>
HY-N1511

>  <Product Name>
Ganoderic acid D

>  <ROW>
O

>  <COLUMN>
19

>  <CAS No.>
108340-60-9

>  <MWt>
514.65

>  <Target>
Apoptosis; Sirtuin

>  <Saltdate>
Free Acid

>  <Smiles>
CC1(C)C(CC[C@]2(C)C3=C([C@@]4(C(C[C@@H]([C@]4(CC3=O)C)[C@H](C)CC(CC(C)C(O)=O)=O)=O)C)[C@@H](O)C[C@@]12[H])=O

>  <Solvent>
DMSO Solution

>  <Batch No.>
154896

>  <Quantity>
10mM  * 50uL

>  <Pathway>
Apoptosis; Cell Cycle/DNA Damage; Epigenetics

>  <Synonyms>


>  <Formula>
C30H42O7

>  <Research_Area>
Cancer

>  <Clinical_Information>
No Development Reported

>  <SUPPLIER>
MedChemExpress

$$$$
Untitled Document
  ChemDraw04152410472D

 74 82  0  0  0  0  0  0  0  0999 V2000
   -6.4425   -1.0852    0.0000 C   0  0  0  0  0  0  0  0  0  0  0  0
   -7.1570   -1.4977    0.0000 C   0  0  0  0  0  0  0  0  0  0  0  0
   -7.1570   -2.3227    0.0000 C   0  0  0  0  0  0  0  0  0  0  0  0
   -6.4425   -2.7351    0.0000 C   0  0  0  0  0  0  0  0  0  0  0  0
   -5.7281   -2.3227    0.0000 N   0  0  0  0  0  0  0  0  0  0  0  0
   -5.7281   -1.4977    0.0000 C   0  0  0  0  0  0  0  0  0  0  0  0
   -7.8715   -1.0852    0.0000 N   0  0  0  0  0  0  0  0  0  0  0  0
   -7.9577   -0.2647    0.0000 N   0  0  0  0  0  0  0  0  0  0  0  0
   -8.7646   -0.0932    0.0000 C   0  0  0  0  0  0  0  0  0  0  0  0
   -9.1771   -0.8077    0.0000 C   0  0  0  0  0  0  0  0  0  0  0  0
   -8.6250   -1.4208    0.0000 C   0  0  0  0  0  0  0  0  0  0  0  0
   -9.9841   -0.9792    0.0000 C   0  0  0  0  0  0  0  0  0  0  0  0
  -10.2390   -1.7638    0.0000 N   0  0  0  0  0  0  0  0  0  0  0  0
   -9.6870   -2.3769    0.0000 C   0  0  0  0  0  0  0  0  0  0  0  0
   -8.8800   -2.2054    0.0000 C   0  0  0  0  0  0  0  0  0  0  0  0
  -11.0359   -1.9773    0.0000 C   0  0  0  0  0  0  0  0  0  0  0  0
  -11.6192   -1.3940    0.0000 N   0  0  0  0  0  0  0  0  0  0  0  0
  -12.4161   -1.6075    0.0000 C   0  0  0  0  0  0  0  0  0  0  0  0
  -11.2494   -2.7741    0.0000 O   0  0  0  0  0  0  0  0  0  0  0  0
   -9.1001    0.6605    0.0000 N   0  0  0  0  0  0  0  0  0  0  0  0
   -8.6152    1.3279    0.0000 C   0  0  0  0  0  0  0  0  0  0  0  0
   -8.9508    2.0816    0.0000 C   0  0  0  0  0  0  0  0  0  0  0  0
   -9.7713    2.1678    0.0000 C   0  0  0  0  0  0  0  0  0  0  0  0
  -10.2562    1.5004    0.0000 C   0  0  0  0  0  0  0  0  0  0  0  0
   -9.9206    0.7467    0.0000 C   0  0  0  0  0  0  0  0  0  0  0  0
   -7.7948    1.2417    0.0000 C   0  0  0  0  0  0  0  0  0  0  0  0
   -7.3099    1.9091    0.0000 C   0  0  0  0  0  0  0  0  0  0  0  0
   -7.6455    2.6628    0.0000 C   0  0  0  0  0  0  0  0  0  0  0  0
   -8.4659    2.7490    0.0000 C   0  0  0  0  0  0  0  0  0  0  0  0
   -7.1605    3.3301    0.0000 C   0  0  0  0  0  0  0  0  0  0  0  0
   -6.4894    1.8229    0.0000 C   0  0  0  0  0  0  0  0  0  0  0  0
   -6.0045    2.4903    0.0000 F   0  0  0  0  0  0  0  0  0  0  0  0
   -6.1539    1.0692    0.0000 F   0  0  0  0  0  0  0  0  0  0  0  0
   -6.3355    3.3301    0.0000 C   0  0  0  0  0  0  0  0  0  0  0  0
   -6.0806    4.1147    0.0000 N   0  0  0  0  0  0  0  0  0  0  0  0
   -6.7480    4.5997    0.0000 N   0  0  0  0  0  0  0  0  0  0  0  0
   -7.4155    4.1147    0.0000 C   0  0  0  0  0  0  0  0  0  0  0  0
   -5.2960    4.3697    0.0000 C   0  0  0  0  0  0  0  0  0  0  0  0
   -5.0136   -2.7351    0.0000 C   0  0  0  0  0  0  0  0  0  0  0  0
   -4.2991   -2.3227    0.0000 C   0  0  0  0  0  0  0  0  0  0  0  0
   -3.5846   -2.7351    0.0000 C   0  0  0  0  0  0  0  0  0  0  0  0
   -2.8702   -2.3227    0.0000 O   0  0  0  0  0  0  0  0  0  0  0  0
   -2.1558   -2.7351    0.0000 C   0  0  0  0  0  0  0  0  0  0  0  0
   -1.4413   -2.3227    0.0000 C   0  0  0  0  0  0  0  0  0  0  0  0
   -0.7269   -2.7351    0.0000 O   0  0  0  0  0  0  0  0  0  0  0  0
   -0.0124   -2.3227    0.0000 C   0  0  0  0  0  0  0  0  0  0  0  0
    0.7021   -2.7351    0.0000 C   0  0  0  0  0  0  0  0  0  0  0  0
    1.4165   -2.3227    0.0000 O   0  0  0  0  0  0  0  0  0  0  0  0
    2.1310   -2.7351    0.0000 C   0  0  0  0  0  0  0  0  0  0  0  0
    2.8454   -2.3227    0.0000 C   0  0  0  0  0  0  0  0  0  0  0  0
    3.5599   -2.7351    0.0000 O   0  0  0  0  0  0  0  0  0  0  0  0
    4.2743   -2.3227    0.0000 C   0  0  0  0  0  0  0  0  0  0  0  0
    4.9888   -2.7351    0.0000 C   0  0  0  0  0  0  0  0  0  0  0  0
    5.7033   -2.3227    0.0000 N   0  0  0  0  0  0  0  0  0  0  0  0
    6.4177   -2.7351    0.0000 C   0  0  0  0  0  0  0  0  0  0  0  0
   -5.0136   -3.5601    0.0000 O   0  0  0  0  0  0  0  0  0  0  0  0
    6.4177   -3.5601    0.0000 C   0  0  0  0  0  0  0  0  0  0  0  0
    7.1322   -3.9726    0.0000 C   0  0  0  0  0  0  0  0  0  0  0  0
    7.8467   -3.5601    0.0000 C   0  0  0  0  0  0  0  0  0  0  0  0
    7.8467   -2.7351    0.0000 C   0  0  0  0  0  0  0  0  0  0  0  0
    7.1322   -2.3227    0.0000 C   0  0  0  0  0  0  0  0  0  0  0  0
    8.6312   -3.8150    0.0000 C   0  0  0  0  0  0  0  0  0  0  0  0
    9.1161   -3.1476    0.0000 N   0  0  0  0  0  0  0  0  0  0  0  0
    8.6312   -2.4803    0.0000 C   0  0  0  0  0  0  0  0  0  0  0  0
    8.8861   -1.6956    0.0000 O   0  0  0  0  0  0  0  0  0  0  0  0
    8.8861   -4.5997    0.0000 O   0  0  0  0  0  0  0  0  0  0  0  0
    9.9411   -3.1476    0.0000 C   0  0  0  0  0  0  0  0  0  0  0  0
   10.3536   -3.8621    0.0000 C   0  0  0  0  0  0  0  0  0  0  0  0
   11.1786   -3.8621    0.0000 N   0  0  0  0  0  0  0  0  0  0  0  0
   11.5911   -3.1476    0.0000 C   0  0  0  0  0  0  0  0  0  0  0  0
   11.1786   -2.4332    0.0000 C   0  0  0  0  0  0  0  0  0  0  0  0
   10.3536   -2.4332    0.0000 C   0  0  0  0  0  0  0  0  0  0  0  0
    9.9411   -4.5766    0.0000 O   0  0  0  0  0  0  0  0  0  0  0  0
   12.4161   -3.1476    0.0000 O   0  0  0  0  0  0  0  0  0  0  0  0
  1  2  1  0      
  2  3  1  0      
  3  4  1  0      
  4  5  1  0      
  5  6  1  0      
  6  1  1  0      
  2  7  1  0      
  7  8  1  0      
  8  9  2  0      
  9 10  1  0      
 10 11  2  0      
 11  7  1  0      
 10 12  1  0      
 12 13  1  0      
 13 14  1  0      
 14 15  1  0      
 15 11  1  0      
 13 16  1  0      
 16 17  1  0      
 17 18  1  0      
 16 19  2  0      
  9 20  1  0      
 20 21  1  0      
 21 22  2  0      
 22 23  1  0      
 23 24  1  0      
 24 25  1  0      
 25 20  1  0      
 21 26  1  0      
 26 27  2  0      
 27 28  1  0      
 28 29  2  0      
 29 22  1  0      
 28 30  1  0      
 27 31  1  0      
 31 32  1  0      
 31 33  1  0      
 30 34  2  0      
 34 35  1  0      
 35 36  1  0      
 36 37  2  0      
 37 30  1  0      
 35 38  1  0      
  5 39  1  0      
 39 40  1  0      
 40 41  1  0      
 41 42  1  0      
 42 43  1  0      
 43 44  1  0      
 44 45  1  0      
 45 46  1  0      
 46 47  1  0      
 47 48  1  0      
 48 49  1  0      
 49 50  1  0      
 50 51  1  0      
 51 52  1  0      
 52 53  1  0      
 53 54  1  0      
 54 55  1  0      
 39 56  2  0      
 55 57  1  0      
 57 58  2  0      
 58 59  1  0      
 59 60  2  0      
 60 61  1  0      
 61 55  2  0      
 59 62  1  0      
 62 63  1  0      
 63 64  1  0      
 64 60  1  0      
 64 65  2  0      
 62 66  2  0      
 63 67  1  0      
 67 68  1  0      
 68 69  1  0      
 69 70  1  0      
 70 71  1  0      
 71 72  1  0      
 72 67  1  0      
 68 73  2  0      
 70 74  2  0      
M  END

>  <RackCode>
HYCPK72334

>  <Cat. No.>
HY-134582

>  <Product Name>
dCBP-1

>  <ROW>
P

>  <COLUMN>
19

>  <CAS No.>
2484739-25-3

>  <MWt>
1028.11

>  <Target>
Epigenetic Reader Domain; PROTACs

>  <Saltdate>


>  <Smiles>
CNC(N(CC1)CC2=C1N(N=C2N3C(C=C(C(F)F)C(C4=CN(C)N=C4)=C5)=C5CCC3)C6CCN(C(CCOCCOCCOCCOCCNC7=CC8=C(C(N(C9C(NC(CC9)=O)=O)C8=O)=O)C=C7)=O)CC6)=O

>  <Solvent>
DMSO Solution

>  <Batch No.>
122427

>  <Quantity>
10mM  * 50uL

>  <Pathway>
Epigenetics; PROTAC

>  <Synonyms>


>  <Formula>
C51H63F2N11O10

>  <Research_Area>
Cancer

>  <Clinical_Information>
No Development Reported

>  <SUPPLIER>
MedChemExpress

$$$$
Untitled Document
  ChemDraw11081814382D

 26 28  0  0  0  0  0  0  0  0999 V2000
   -0.7059    0.5713    0.0000 C   0  0  0  0  0  0  0  0  0  0  0  0
    0.0086    0.1588    0.0000 C   0  0  0  0  0  0  0  0  0  0  0  0
    0.7231    0.5713    0.0000 C   0  0  0  0  0  0  0  0  0  0  0  0
    1.4376    0.1588    0.0000 C   0  0  0  0  0  0  0  0  0  0  0  0
    1.4376   -0.6662    0.0000 C   0  0  0  0  0  0  0  0  0  0  0  0
    0.7231   -1.0787    0.0000 C   0  0  0  0  0  0  0  0  0  0  0  0
    0.0086   -0.6662    0.0000 C   0  0  0  0  0  0  0  0  0  0  0  0
   -0.7059    1.3963    0.0000 O   0  0  0  0  0  0  0  0  0  0  0  0
   -1.4203    0.1588    0.0000 N   0  0  0  0  0  0  0  0  0  0  0  0
    2.1520   -1.0787    0.0000 N   0  0  0  0  0  0  0  0  0  0  0  0
    2.8665   -0.6662    0.0000 C   0  0  0  0  0  0  0  0  0  0  0  0
    3.6202   -1.0018    0.0000 C   0  0  0  0  0  0  0  0  0  0  0  0
    4.1722   -0.3887    0.0000 C   0  0  0  0  0  0  0  0  0  0  0  0
    3.7597    0.3258    0.0000 C   0  0  0  0  0  0  0  0  0  0  0  0
    2.9527    0.1542    0.0000 C   0  0  0  0  0  0  0  0  0  0  0  0
    4.9927   -0.4749    0.0000 O   0  0  0  0  0  0  0  0  0  0  0  0
    3.7917   -1.8088    0.0000 C   0  0  0  0  0  0  0  0  0  0  0  0
   -2.1348    0.5713    0.0000 C   0  0  0  0  0  0  0  0  0  0  0  0
   -2.8493    0.1588    0.0000 C   0  0  0  0  0  0  0  0  0  0  0  0
   -3.5637    0.5713    0.0000 C   0  0  0  0  0  0  0  0  0  0  0  0
   -3.5637    1.3963    0.0000 C   0  0  0  0  0  0  0  0  0  0  0  0
   -2.8493    1.8088    0.0000 C   0  0  0  0  0  0  0  0  0  0  0  0
   -2.1348    1.3963    0.0000 C   0  0  0  0  0  0  0  0  0  0  0  0
   -4.2782    1.8088    0.0000 O   0  0  0  0  0  0  0  0  0  0  0  0
   -4.9927    1.3963    0.0000 C   0  0  0  0  0  0  0  0  0  0  0  0
    2.1520    0.5713    0.0000 Cl  0  0  0  0  0  0  0  0  0  0  0  0
  1  2  1  0      
  2  3  1  0      
  3  4  2  0      
  4  5  1  0      
  5  6  2  0      
  6  7  1  0      
  2  7  2  0      
  1  8  2  0      
  1  9  1  0      
 11 12  2  0      
 12 13  1  0      
 13 14  1  0      
 14 15  1  0      
 11 15  1  0      
 13 16  2  0      
 12 17  1  0      
 10 11  1  0      
  5 10  1  0      
 18 19  1  0      
 19 20  2  0      
 20 21  1  0      
 21 22  2  0      
 22 23  1  0      
 18 23  2  0      
 24 25  1  0      
 21 24  1  0      
  9 18  1  0      
  4 26  1  0      
M  END

>  <RackCode>
HYCPK72334

>  <Cat. No.>
HY-120000

>  <Product Name>
MS402

>  <ROW>
A

>  <COLUMN>
20

>  <CAS No.>
1672684-68-2

>  <MWt>
370.83

>  <Target>
Epigenetic Reader Domain

>  <Saltdate>
Free Base

>  <Smiles>
O=C(NC1=CC=C(OC)C=C1)C2=CC=C(NC3=C(C)C(CC3)=O)C(Cl)=C2

>  <Solvent>
DMSO Solution

>  <Batch No.>
84336

>  <Quantity>
10mM  * 50uL

>  <Pathway>
Epigenetics

>  <Synonyms>


>  <Formula>
C20H19ClN2O3

>  <Research_Area>
Cancer; Inflammation/Immunology

>  <Clinical_Information>
No Development Reported

>  <SUPPLIER>
MedChemExpress

$$$$
Untitled Document
  ChemDraw01131416512D

 27 29  0  0  0  0  0  0  0  0999 V2000
   -2.0534   -2.4750    0.0000 N   0  0  0  0  0  0  0  0  0  0  0  0
   -2.0534   -3.3000    0.0000 C   0  0  0  0  0  0  0  0  0  0  0  0
   -1.3390   -3.7125    0.0000 N   0  0  0  0  0  0  0  0  0  0  0  0
   -0.6245   -3.3000    0.0000 C   0  0  0  0  0  0  0  0  0  0  0  0
   -0.6245   -2.4750    0.0000 C   0  0  0  0  0  0  0  0  0  0  0  0
   -1.3390   -2.0625    0.0000 C   0  0  0  0  0  0  0  0  0  0  0  0
    0.1601   -3.5549    0.0000 C   0  0  0  0  0  0  0  0  0  0  0  0
    0.6451   -2.8875    0.0000 C   0  0  0  0  0  0  0  0  0  0  0  0
    0.1601   -2.2201    0.0000 S   0  0  0  0  0  0  0  0  0  0  0  0
   -1.3390   -1.2375    0.0000 N   0  0  0  0  0  0  0  0  0  0  0  0
   -0.6245   -0.8250    0.0000 C   0  0  0  0  0  0  0  0  0  0  0  0
   -0.6245    0.0000    0.0000 C   0  0  0  0  0  0  0  0  0  0  0  0
   -1.3390    0.4125    0.0000 C   0  0  0  0  0  0  0  0  0  0  0  0
   -2.0534    0.0000    0.0000 C   0  0  0  0  0  0  0  0  0  0  0  0
   -2.0534   -0.8250    0.0000 C   0  0  0  0  0  0  0  0  0  0  0  0
   -1.3390    1.2375    0.0000 C   0  0  0  0  0  0  0  0  0  0  0  0
    1.4701   -2.8875    0.0000 C   0  0  0  0  0  0  0  0  0  0  0  0
    2.0534   -3.4709    0.0000 N   0  0  0  0  0  0  0  0  0  0  0  0
    1.7858   -2.1253    0.0000 O   0  0  0  0  0  0  0  0  0  0  0  0
   -0.6245    1.6500    0.0000 C   0  0  0  0  0  0  0  0  0  0  0  0
   -0.6245    2.4750    0.0000 N   0  0  0  0  0  0  0  0  0  0  0  0
    0.0900    2.8875    0.0000 C   0  0  0  0  0  0  0  0  0  0  0  0
    0.8045    2.4750    0.0000 C   0  0  0  0  0  0  0  0  0  0  0  0
    0.0900    3.7125    0.0000 O   0  0  0  0  0  0  0  0  0  0  0  0
    1.5189    2.0625    0.0000 C   0  0  0  0  0  0  0  0  0  0  0  0
    0.5909    1.6781    0.0000 C   0  0  0  0  0  0  0  0  0  0  0  0
    1.6013    2.6885    0.0000 C   0  0  0  0  0  0  0  0  0  0  0  0
  1  2  2  0      
  2  3  1  0      
  3  4  2  0      
  4  5  1  0      
  5  6  2  0      
  6  1  1  0      
  4  7  1  0      
  7  8  2  0      
  8  9  1  0      
  9  5  1  0      
  6 10  1  0      
 10 11  1  0      
 11 12  1  0      
 12 13  1  0      
 13 14  1  0      
 14 15  1  0      
 15 10  1  0      
 13 16  1  0      
  8 17  1  0      
 17 18  1  0      
 17 19  2  0      
 16 20  1  0      
 20 21  1  0      
 21 22  1  0      
 22 23  1  0      
 22 24  2  0      
 23 25  1  0      
 23 26  1  0      
 23 27  1  0      
M  END

>  <RackCode>
HYCPK72334

>  <Cat. No.>
HY-16615

>  <Product Name>
SIRT-IN-1

>  <ROW>
B

>  <COLUMN>
20

>  <CAS No.>
1431411-60-7

>  <MWt>
389.52

>  <Target>
Sirtuin

>  <Saltdate>
Free Base

>  <Smiles>
NC(C1=CC2=NC=NC(N3CCC(CCNC(C(C)(C)C)=O)CC3)=C2S1)=O

>  <Solvent>
DMSO Solution

>  <Batch No.>
150982

>  <Quantity>
10mM  * 50uL

>  <Pathway>
Cell Cycle/DNA Damage; Epigenetics

>  <Synonyms>


>  <Formula>
C19H27N5O2S

>  <Research_Area>
Metabolic Disease; Neurological Disease; Cancer; Inflammation/Immunology

>  <Clinical_Information>
No Development Reported

>  <SUPPLIER>
MedChemExpress

$$$$
Untitled Document
  ChemDraw09301613052D

 23 25  0  0  0  0  0  0  0  0999 V2000
   -2.0699    0.8156    0.0000 C   0  0  0  0  0  0  0  0  0  0  0  0
   -2.0381   -0.0116    0.0000 C   0  0  0  0  0  0  0  0  0  0  0  0
   -1.3063   -0.3977    0.0000 C   0  0  0  0  0  0  0  0  0  0  0  0
   -0.6058    0.0435    0.0000 C   0  0  0  0  0  0  0  0  0  0  0  0
   -0.6058    0.8707    0.0000 C   0  0  0  0  0  0  0  0  0  0  0  0
   -1.3063    1.2568    0.0000 C   0  0  0  0  0  0  0  0  0  0  0  0
    0.1809   -0.2121    0.0000 N   0  0  0  0  0  0  0  0  0  0  0  0
    0.6672    0.4571    0.0000 C   0  0  0  0  0  0  0  0  0  0  0  0
    0.1809    1.1264    0.0000 N   0  0  0  0  0  0  0  0  0  0  0  0
    1.4916    0.4571    0.0000 N   0  0  0  0  0  0  0  0  0  0  0  0
    2.0010   -0.1956    0.0000 C   0  0  0  0  0  0  0  0  0  0  0  0
    2.7916    0.0462    0.0000 C   0  0  0  0  0  0  0  0  0  0  0  0
    2.7709    0.8482    0.0000 C   0  0  0  0  0  0  0  0  0  0  0  0
    1.9753    1.0768    0.0000 N   0  0  0  0  0  0  0  0  0  0  0  0
    3.4610   -0.4360    0.0000 C   0  0  0  0  0  0  0  0  0  0  0  0
    4.2133   -0.0973    0.0000 O   0  0  0  0  0  0  0  0  0  0  0  0
    3.3782   -1.2568    0.0000 O   0  0  0  0  0  0  0  0  0  0  0  0
   -2.7844    1.2281    0.0000 O   0  0  0  0  0  0  0  0  0  0  0  0
   -3.4988    0.8156    0.0000 C   0  0  0  0  0  0  0  0  0  0  0  0
   -4.2133    1.2281    0.0000 F   0  0  0  0  0  0  0  0  0  0  0  0
   -4.2133    0.4031    0.0000 F   0  0  0  0  0  0  0  0  0  0  0  0
   -3.4988   -0.0093    0.0000 F   0  0  0  0  0  0  0  0  0  0  0  0
   -2.7526   -0.4241    0.0000 Cl  0  0  0  0  0  0  0  0  0  0  0  0
  1  2  2  0      
  2  3  1  0      
  3  4  2  0      
  4  5  1  0      
  5  6  2  0      
  6  1  1  0      
  4  7  1  0      
  7  8  2  0      
  8  9  1  0      
  9  5  1  0      
  8 10  1  0      
 10 11  1  0      
 11 12  2  0      
 12 13  1  0      
 13 14  2  0      
 14 10  1  0      
 12 15  1  0      
 15 16  1  0      
 15 17  2  0      
  1 18  1  0      
 18 19  1  0      
 19 20  1  0      
 19 21  1  0      
 19 22  1  0      
  2 23  1  0      
M  END

>  <RackCode>
HYCPK72334

>  <Cat. No.>
HY-12832

>  <Product Name>
JNJ-42041935

>  <ROW>
C

>  <COLUMN>
20

>  <CAS No.>
1193383-09-3

>  <MWt>
346.65

>  <Target>
HIF/HIF Prolyl-Hydroxylase

>  <Saltdate>
Free Acid

>  <Smiles>
OC(C(C=N1)=CN1C2=NC3=CC(Cl)=C(OC(F)(F)F)C=C3N2)=O

>  <Solvent>
DMSO Solution

>  <Batch No.>
18804

>  <Quantity>
10mM  * 50uL

>  <Pathway>
Metabolic Enzyme/Protease

>  <Synonyms>


>  <Formula>
C12H6ClF3N4O3

>  <Research_Area>
Inflammation/Immunology

>  <Clinical_Information>
No Development Reported

>  <SUPPLIER>
MedChemExpress

$$$$
Untitled Document
  ChemDraw11171611072D

 27 29  0  0  0  0  0  0  0  0999 V2000
    1.7277    2.8121    0.0000 O   0  0  0  0  0  0  0  0  0  0  0  0
    1.7277    1.9871    0.0000 C   0  0  0  0  0  0  0  0  0  0  0  0
    2.4422    1.5746    0.0000 N   0  0  0  0  0  0  0  0  0  0  0  0
    3.1566    1.9871    0.0000 O   0  0  0  0  0  0  0  0  0  0  0  0
    1.0132    1.5746    0.0000 C   0  0  0  0  0  0  0  0  0  0  0  0
    1.0132    0.7496    0.0000 C   0  0  0  0  0  0  0  0  0  0  0  0
    0.2988    0.3371    0.0000 C   0  0  0  0  0  0  0  0  0  0  0  0
   -0.4157    0.7496    0.0000 C   0  0  0  0  0  0  0  0  0  0  0  0
   -1.1302    0.3371    0.0000 C   0  0  0  0  0  0  0  0  0  0  0  0
   -1.1302   -0.4879    0.0000 N   0  0  0  0  0  0  0  0  0  0  0  0
   -0.4628   -0.9728    0.0000 C   0  0  0  0  0  0  0  0  0  0  0  0
    0.3442   -0.8013    0.0000 C   0  0  0  0  0  0  0  0  0  0  0  0
    0.8963   -1.4144    0.0000 C   0  0  0  0  0  0  0  0  0  0  0  0
    0.6413   -2.1990    0.0000 N   0  0  0  0  0  0  0  0  0  0  0  0
    1.1933   -2.8121    0.0000 C   0  0  0  0  0  0  0  0  0  0  0  0
   -0.1657   -2.3705    0.0000 C   0  0  0  0  0  0  0  0  0  0  0  0
   -0.7177   -1.7574    0.0000 C   0  0  0  0  0  0  0  0  0  0  0  0
   -1.5427   -1.7574    0.0000 C   0  0  0  0  0  0  0  0  0  0  0  0
   -1.7976   -0.9728    0.0000 C   0  0  0  0  0  0  0  0  0  0  0  0
   -2.6046   -0.8013    0.0000 C   0  0  0  0  0  0  0  0  0  0  0  0
   -3.1566   -1.4144    0.0000 C   0  0  0  0  0  0  0  0  0  0  0  0
   -2.9017   -2.1990    0.0000 C   0  0  0  0  0  0  0  0  0  0  0  0
   -2.0947   -2.3705    0.0000 C   0  0  0  0  0  0  0  0  0  0  0  0
   -0.4157    1.5746    0.0000 C   0  0  0  0  0  0  0  0  0  0  0  0
    0.2988    1.9871    0.0000 C   0  0  0  0  0  0  0  0  0  0  0  0
    2.1769   -1.6328    0.0000 H   0  0  0  0  0  0  0  0  0  0  0  0
    3.0019   -1.6328    0.0000 Cl  0  0  0  0  0  0  0  0  0  0  0  0
  1  2  2  0      
  2  3  1  0      
  3  4  1  0      
  2  5  1  0      
  5  6  2  0      
  6  7  1  0      
  7  8  2  0      
  8  9  1  0      
  9 10  1  0      
 10 11  1  0      
 11 12  1  0      
 12 13  1  0      
 13 14  1  0      
 14 15  1  0      
 14 16  1  0      
 11 17  2  0      
 16 17  1  0      
 17 18  1  0      
 18 19  2  0      
 10 19  1  0      
 19 20  1  0      
 20 21  2  0      
 21 22  1  0      
 22 23  2  0      
 18 23  1  0      
  8 24  1  0      
 24 25  2  0      
  5 25  1  0      
 26 27  1  0      
M  END

>  <RackCode>
HYCPK72334

>  <Cat. No.>
HY-13271

>  <Product Name>
Tubastatin A (Hydrochloride)

>  <ROW>
D

>  <COLUMN>
20

>  <CAS No.>
1310693-92-5

>  <MWt>
371.86

>  <Target>
Apoptosis; Autophagy; Beta-lactamase; HDAC

>  <Saltdate>
Hydrochloride

>  <Smiles>
O=C(C1=CC=C(C=C1)CN2C3=C(C4=C2C=CC=C4)CN(C)CC3)NO.[H]Cl

>  <Solvent>
DMSO Solution

>  <Batch No.>
36592

>  <Quantity>
10mM  * 50uL

>  <Pathway>
Anti-infection; Apoptosis; Autophagy; Cell Cycle/DNA Damage; Epigenetics

>  <Synonyms>
Tubastatin A HCl; TSA HCl

>  <Formula>
C20H22ClN3O2

>  <Research_Area>
Cancer

>  <Clinical_Information>
No Development Reported

>  <SUPPLIER>
MedChemExpress

$$$$
Untitled Document
  ChemDraw06131613532D

 13 14  0  0  0  0  0  0  0  0999 V2000
    1.7862    0.8250    0.0000 C   0  0  0  0  0  0  0  0  0  0  0  0
    1.7862    0.0000    0.0000 C   0  0  0  0  0  0  0  0  0  0  0  0
    1.0717   -0.4125    0.0000 C   0  0  0  0  0  0  0  0  0  0  0  0
    0.3572    0.0000    0.0000 C   0  0  0  0  0  0  0  0  0  0  0  0
    0.3572    0.8250    0.0000 C   0  0  0  0  0  0  0  0  0  0  0  0
    1.0717    1.2375    0.0000 O   0  0  0  0  0  0  0  0  0  0  0  0
   -0.3572    1.2375    0.0000 C   0  0  0  0  0  0  0  0  0  0  0  0
   -1.0717    0.8250    0.0000 C   0  0  0  0  0  0  0  0  0  0  0  0
   -1.0717    0.0000    0.0000 C   0  0  0  0  0  0  0  0  0  0  0  0
   -0.3572   -0.4125    0.0000 C   0  0  0  0  0  0  0  0  0  0  0  0
    1.0717   -1.2375    0.0000 O   0  0  0  0  0  0  0  0  0  0  0  0
   -1.7862    1.2375    0.0000 O   0  0  0  0  0  0  0  0  0  0  0  0
   -0.3572   -1.2375    0.0000 O   0  0  0  0  0  0  0  0  0  0  0  0
  1  2  2  0      
  2  3  1  0      
  3  4  1  0      
  4  5  1  0      
  5  6  1  0      
  1  6  1  0      
  7  8  1  0      
  8  9  2  0      
  9 10  1  0      
  4 10  2  0      
  5  7  2  0      
  3 11  2  0      
  8 12  1  0      
 10 13  1  0      
M  END

>  <RackCode>
HYCPK72334

>  <Cat. No.>
HY-N1970

>  <Product Name>
5,7-Dihydroxychromone

>  <ROW>
E

>  <COLUMN>
20

>  <CAS No.>
31721-94-5

>  <MWt>
178.14

>  <Target>
Arenavirus; Caspase; Keap1-Nrf2; PARP

>  <Saltdate>
Free Base

>  <Smiles>
O=C1C=COC2=CC(O)=CC(O)=C12

>  <Solvent>
DMSO Solution

>  <Batch No.>
145285

>  <Quantity>
10mM  * 50uL

>  <Pathway>
Anti-infection; Apoptosis; Cell Cycle/DNA Damage; Epigenetics; NF-¦ÊB

>  <Synonyms>


>  <Formula>
C9H6O4

>  <Research_Area>
Neurological Disease

>  <Clinical_Information>
No Development Reported

>  <SUPPLIER>
MedChemExpress

$$$$
Untitled Document
  ChemDraw10312314452D

 23 22  0  0  0  0  0  0  0  0999 V2000
   -2.1434   -0.8250    0.0000 N   0  0  0  0  0  0  0  0  0  0  0  0
   -1.4289   -0.4125    0.0000 C   0  0  0  0  0  0  0  0  0  0  0  0
   -1.4289    0.4125    0.0000 N   0  0  0  0  0  0  0  0  0  0  0  0
   -0.7145   -0.8250    0.0000 N   0  0  0  0  0  0  0  0  0  0  0  0
   -0.0000   -0.4125    0.0000 C   0  0  0  0  0  0  0  0  0  0  0  0
   -0.0000    0.4125    0.0000 N   0  0  0  0  0  0  0  0  0  0  0  0
    0.7145   -0.8250    0.0000 N   0  0  0  0  0  0  0  0  0  0  0  0
    1.4289   -0.4125    0.0000 C   0  0  0  0  0  0  0  0  0  0  0  0
    1.4289    0.4125    0.0000 C   0  0  0  0  0  0  0  0  0  0  0  0
    2.1434    0.8250    0.0000 C   0  0  0  0  0  0  0  0  0  0  0  0
    2.8579    0.4125    0.0000 C   0  0  0  0  0  0  0  0  0  0  0  0
    2.8579   -0.4125    0.0000 C   0  0  0  0  0  0  0  0  0  0  0  0
    2.1434   -0.8250    0.0000 C   0  0  0  0  0  0  0  0  0  0  0  0
    3.5724    0.8250    0.0000 C   0  0  0  0  0  0  0  0  0  0  0  0
    4.2868    1.2375    0.0000 F   0  0  0  0  0  0  0  0  0  0  0  0
    3.5724    1.6500    0.0000 F   0  0  0  0  0  0  0  0  0  0  0  0
    4.2868    0.4125    0.0000 F   0  0  0  0  0  0  0  0  0  0  0  0
   -2.8579   -0.4125    0.0000 C   0  0  0  0  0  0  0  0  0  0  0  0
   -3.5724   -0.8250    0.0000 C   0  0  0  0  0  0  0  0  0  0  0  0
   -3.5724   -1.6500    0.0000 C   0  0  0  0  0  0  0  0  0  0  0  0
   -4.2868   -0.4125    0.0000 C   0  0  0  0  0  0  0  0  0  0  0  0
    3.1813   -1.1803    0.0000 H   0  0  0  0  0  0  0  0  0  0  0  0
    4.0063   -1.1803    0.0000 Cl  0  0  0  0  0  0  0  0  0  0  0  0
  1  2  1  0      
  2  3  2  0      
  2  4  1  0      
  4  5  1  0      
  5  6  2  0      
  5  7  1  0      
  8  9  1  0      
  9 10  2  0      
 10 11  1  0      
 11 12  2  0      
 12 13  1  0      
  8 13  2  0      
 14 15  1  0      
 14 16  1  0      
 14 17  1  0      
 11 14  1  0      
  7  8  1  0      
 18 19  1  0      
 19 20  1  0      
 21 19  1  0      
  1 18  1  0      
 22 23  1  0      
M  END

>  <RackCode>
HYCPK72334

>  <Cat. No.>
HY-130723A

>  <Product Name>
AMPK activator 2 (hydrochloride)

>  <ROW>
F

>  <COLUMN>
20

>  <CAS No.>


>  <MWt>
337.77

>  <Target>
AMPK

>  <Saltdate>
Hydrochloride

>  <Smiles>
N=C(NC(NC1=CC=C(C(F)(F)F)C=C1)=N)NCC(C)C.[H]Cl

>  <Solvent>
DMSO Solution

>  <Batch No.>
309634

>  <Quantity>
10mM  * 50uL

>  <Pathway>
Epigenetics; PI3K/Akt/mTOR

>  <Synonyms>


>  <Formula>
C13H19ClF3N5

>  <Research_Area>
Cancer

>  <Clinical_Information>
No Development Reported

>  <SUPPLIER>
MedChemExpress

$$$$
Untitled Document
  ChemDraw04032014562D

 21 23  0  0  0  0  0  0  0  0999 V2000
   -1.0717   -0.2062    0.0000 C   0  0  0  0  0  0  0  0  0  0  0  0
   -1.0717   -1.0313    0.0000 N   0  0  0  0  0  0  0  0  0  0  0  0
   -0.3572   -1.4437    0.0000 C   0  0  0  0  0  0  0  0  0  0  0  0
    0.3572   -1.0313    0.0000 C   0  0  0  0  0  0  0  0  0  0  0  0
    0.3572   -0.2062    0.0000 C   0  0  0  0  0  0  0  0  0  0  0  0
   -0.3572    0.2062    0.0000 N   0  0  0  0  0  0  0  0  0  0  0  0
    1.0717   -1.4437    0.0000 C   0  0  0  0  0  0  0  0  0  0  0  0
    1.0717   -2.2687    0.0000 O   0  0  0  0  0  0  0  0  0  0  0  0
    1.7862   -1.0313    0.0000 O   0  0  0  0  0  0  0  0  0  0  0  0
   -1.7862    0.2062    0.0000 N   0  0  0  0  0  0  0  0  0  0  0  0
   -2.5006   -0.2062    0.0000 C   0  0  0  0  0  0  0  0  0  0  0  0
   -3.2151   -0.6187    0.0000 C   0  0  0  0  0  0  0  0  0  0  0  0
   -2.5006   -1.0313    0.0000 C   0  0  0  0  0  0  0  0  0  0  0  0
   -2.5006    0.6187    0.0000 C   0  0  0  0  0  0  0  0  0  0  0  0
   -3.2151    1.0313    0.0000 C   0  0  0  0  0  0  0  0  0  0  0  0
   -3.2151    1.8563    0.0000 C   0  0  0  0  0  0  0  0  0  0  0  0
   -2.5006    2.2687    0.0000 C   0  0  0  0  0  0  0  0  0  0  0  0
   -1.7862    1.8563    0.0000 C   0  0  0  0  0  0  0  0  0  0  0  0
   -1.7862    1.0313    0.0000 C   0  0  0  0  0  0  0  0  0  0  0  0
    2.5006   -1.4437    0.0000 C   0  0  0  0  0  0  0  0  0  0  0  0
    3.2151   -1.0313    0.0000 C   0  0  0  0  0  0  0  0  0  0  0  0
  1  2  1  0      
  2  3  2  0      
  3  4  1  0      
  4  5  2  0      
  5  6  1  0      
  1  6  2  0      
  7  8  2  0      
  7  9  1  0      
  4  7  1  0      
 11 12  1  0      
 12 13  1  0      
 11 13  1  0      
 14 15  1  0      
 15 16  2  0      
 16 17  1  0      
 17 18  2  0      
 18 19  1  0      
 14 19  2  0      
 11 14  1  0      
 10 11  1  0      
  1 10  1  0      
 20 21  1  0      
  9 20  1  0      
M  END

>  <RackCode>
HYCPK72334

>  <Cat. No.>
HY-135890

>  <Product Name>
CG347B

>  <ROW>
G

>  <COLUMN>
20

>  <CAS No.>
1598426-03-9

>  <MWt>
283.33

>  <Target>
HDAC

>  <Saltdate>


>  <Smiles>
O=C(C1=CN=C(NC2(C3=CC=CC=C3)CC2)N=C1)OCC

>  <Solvent>
DMSO Solution

>  <Batch No.>
64355

>  <Quantity>
10mM  * 50uL

>  <Pathway>
Cell Cycle/DNA Damage; Epigenetics

>  <Synonyms>


>  <Formula>
C16H17N3O2

>  <Research_Area>
Cancer; Inflammation/Immunology; Neurological Disease

>  <Clinical_Information>
No Development Reported

>  <SUPPLIER>
MedChemExpress

$$$$
Untitled Document
  ChemDraw05042309182D

 35 38  0  0  0  0  0  0  0  0999 V2000
    2.4992   -0.7021    0.0000 H   0  0  0  0  0  0  0  0  0  0  0  0
    3.3242   -0.7021    0.0000 Cl  0  0  0  0  0  0  0  0  0  0  0  0
    0.0887   -3.5062    0.0000 F   0  0  0  0  0  0  0  0  0  0  0  0
   -0.6257   -3.9187    0.0000 C   0  0  0  0  0  0  0  0  0  0  0  0
   -0.6257   -4.7437    0.0000 C   0  0  0  0  0  0  0  0  0  0  0  0
   -1.3402   -5.1563    0.0000 C   0  0  0  0  0  0  0  0  0  0  0  0
   -2.0547   -4.7437    0.0000 C   0  0  0  0  0  0  0  0  0  0  0  0
   -2.0547   -3.9187    0.0000 C   0  0  0  0  0  0  0  0  0  0  0  0
   -2.8393   -3.6638    0.0000 C   0  0  0  0  0  0  0  0  0  0  0  0
   -3.3242   -4.3312    0.0000 C   0  0  0  0  0  0  0  0  0  0  0  0
   -2.8393   -4.9987    0.0000 O   0  0  0  0  0  0  0  0  0  0  0  0
   -1.3402   -3.5062    0.0000 C   0  0  0  0  0  0  0  0  0  0  0  0
   -1.3402   -2.6812    0.0000 C   0  0  0  0  0  0  0  0  0  0  0  0
   -0.6257   -2.2687    0.0000 N   0  0  0  0  0  0  0  0  0  0  0  0
   -0.6257   -1.4437    0.0000 C   0  0  0  0  0  0  0  0  0  0  0  0
   -1.3402   -1.0313    0.0000 N   0  0  0  0  0  0  0  0  0  0  0  0
   -1.3402   -0.2062    0.0000 C   0  0  0  0  0  0  0  0  0  0  0  0
   -0.6257    0.2062    0.0000 C   0  0  0  0  0  0  0  0  0  0  0  0
    0.0887   -0.2062    0.0000 C   0  0  0  0  0  0  0  0  0  0  0  0
    0.8733    0.0487    0.0000 N   0  0  0  0  0  0  0  0  0  0  0  0
    1.3583   -0.6187    0.0000 N   0  0  0  0  0  0  0  0  0  0  0  0
    0.8733   -1.2862    0.0000 C   0  0  0  0  0  0  0  0  0  0  0  0
    0.0887   -1.0313    0.0000 N   0  0  0  0  0  0  0  0  0  0  0  0
   -0.6257    1.0313    0.0000 C   0  0  0  0  0  0  0  0  0  0  0  0
   -1.3402    1.4437    0.0000 C   0  0  0  0  0  0  0  0  0  0  0  0
   -1.3402    2.2687    0.0000 N   0  0  0  0  0  0  0  0  0  0  0  0
   -0.6257    2.6812    0.0000 C   0  0  0  0  0  0  0  0  0  0  0  0
    0.0887    2.2687    0.0000 C   0  0  0  0  0  0  0  0  0  0  0  0
    0.0887    1.4437    0.0000 C   0  0  0  0  0  0  0  0  0  0  0  0
   -0.6257    3.5062    0.0000 C   0  0  0  0  0  0  0  0  0  0  0  0
   -1.3402    3.9187    0.0000 C   0  0  0  0  0  0  0  0  0  0  0  0
   -1.3402    4.7437    0.0000 C   0  0  0  0  0  0  0  0  0  0  0  0
   -2.0547    5.1563    0.0000 O   0  0  0  0  0  0  0  0  0  0  0  0
   -0.6257    5.1563    0.0000 O   0  0  0  0  0  0  0  0  0  0  0  0
   -2.0547    1.0313    0.0000 C   0  0  0  0  0  0  0  0  0  0  0  0
  1  2  1  0      
  3  4  1  0      
  4  5  2  0      
  5  6  1  0      
  6  7  2  0      
  7  8  1  0      
  8  9  1  0      
  9 10  1  0      
 10 11  1  0      
  7 11  1  0      
  8 12  2  0      
  4 12  1  0      
 12 13  1  0      
 13 14  1  0      
 14 15  1  0      
 15 16  2  0      
 16 17  1  0      
 17 18  2  0      
 18 19  1  0      
 19 20  2  0      
 20 21  1  0      
 21 22  2  0      
 22 23  1  0      
 15 23  1  0      
 19 23  1  0      
 18 24  1  0      
 24 25  2  0      
 25 26  1  0      
 26 27  2  0      
 27 28  1  0      
 28 29  2  0      
 24 29  1  0      
 27 30  1  0      
 30 31  1  0      
 31 32  1  0      
 32 33  1  0      
 32 34  2  0      
 25 35  1  0      
M  END

>  <RackCode>
HYCPK72334

>  <Cat. No.>
HY-130815A

>  <Product Name>
MAK683-CH2CH2COOH (hydrochloride)

>  <ROW>
H

>  <COLUMN>
20

>  <CAS No.>


>  <MWt>
484.91

>  <Target>
Histone Methyltransferase; Ligands for Target Protein for PROTAC

>  <Saltdate>
Hydrochloride

>  <Smiles>
[H]Cl.FC1=CC=C2C(CCO2)=C1CNC3=NC=C(C4=C(C)N=C(CCC(O)=O)C=C4)C5=NN=CN35

>  <Solvent>
DMSO Solution

>  <Batch No.>
119972

>  <Quantity>
10mM  * 50uL

>  <Pathway>
Epigenetics; PROTAC

>  <Synonyms>


>  <Formula>
C23H22ClFN6O3

>  <Research_Area>
Cancer

>  <Clinical_Information>
No Development Reported

>  <SUPPLIER>
MedChemExpress

$$$$
Untitled Document
  ChemDraw05312210172D

 42 45  0  0  0  0  0  0  0  0999 V2000
    0.7942    2.8658    0.0000 C   0  0  0  0  0  0  0  0  0  0  0  0
    0.7942    2.0408    0.0000 N   0  0  0  0  0  0  0  0  0  0  0  0
    0.0797    1.6283    0.0000 C   0  0  0  0  0  0  0  0  0  0  0  0
    1.5086    1.6283    0.0000 C   0  0  0  0  0  0  0  0  0  0  0  0
    1.5086    0.8033    0.0000 C   0  0  0  0  0  0  0  0  0  0  0  0
    2.2231    0.3908    0.0000 N   0  0  0  0  0  0  0  0  0  0  0  0
    2.9376    0.8033    0.0000 C   0  0  0  0  0  0  0  0  0  0  0  0
    3.6521    0.3908    0.0000 N   0  0  0  0  0  0  0  0  0  0  0  0
    4.3665    0.8033    0.0000 C   0  0  0  0  0  0  0  0  0  0  0  0
    5.1511    0.5484    0.0000 C   0  0  0  0  0  0  0  0  0  0  0  0
    5.6361    1.2158    0.0000 C   0  0  0  0  0  0  0  0  0  0  0  0
    5.1511    1.8833    0.0000 N   0  0  0  0  0  0  0  0  0  0  0  0
    4.3665    1.6283    0.0000 C   0  0  0  0  0  0  0  0  0  0  0  0
    3.6521    2.0408    0.0000 C   0  0  0  0  0  0  0  0  0  0  0  0
    2.9376    1.6283    0.0000 N   0  0  0  0  0  0  0  0  0  0  0  0
    2.2231    2.0408    0.0000 C   0  0  0  0  0  0  0  0  0  0  0  0
    2.2231    2.8658    0.0000 C   0  0  0  0  0  0  0  0  0  0  0  0
    1.5086    3.2783    0.0000 C   0  0  0  0  0  0  0  0  0  0  0  0
    3.6521    2.8658    0.0000 O   0  0  0  0  0  0  0  0  0  0  0  0
    0.7942    0.3908    0.0000 C   0  0  0  0  0  0  0  0  0  0  0  0
    0.0797    0.8033    0.0000 C   0  0  0  0  0  0  0  0  0  0  0  0
   -0.6348    0.3908    0.0000 C   0  0  0  0  0  0  0  0  0  0  0  0
   -0.6348   -0.4342    0.0000 C   0  0  0  0  0  0  0  0  0  0  0  0
   -1.3492   -0.8467    0.0000 C   0  0  0  0  0  0  0  0  0  0  0  0
   -1.3492    0.8033    0.0000 C   0  0  0  0  0  0  0  0  0  0  0  0
   -2.0637    0.3908    0.0000 C   0  0  0  0  0  0  0  0  0  0  0  0
   -2.0637   -0.4342    0.0000 C   0  0  0  0  0  0  0  0  0  0  0  0
   -2.7782   -0.8467    0.0000 O   0  0  0  0  0  0  0  0  0  0  0  0
   -3.4927   -0.4342    0.0000 C   0  0  0  0  0  0  0  0  0  0  0  0
   -4.2071   -0.8467    0.0000 C   0  0  0  0  0  0  0  0  0  0  0  0
   -4.2071   -1.6717    0.0000 C   0  0  0  0  0  0  0  0  0  0  0  0
   -4.9216   -2.0842    0.0000 C   0  0  0  0  0  0  0  0  0  0  0  0
   -5.6361   -1.6717    0.0000 C   0  0  0  0  0  0  0  0  0  0  0  0
   -5.6361   -0.8467    0.0000 C   0  0  0  0  0  0  0  0  0  0  0  0
   -4.9216   -0.4342    0.0000 C   0  0  0  0  0  0  0  0  0  0  0  0
    0.2169   -2.4562    0.0000 C   0  0  0  0  0  0  0  0  0  0  0  0
    0.9313   -2.0437    0.0000 C   0  0  0  0  0  0  0  0  0  0  0  0
    1.6433   -2.4548    0.0000 O   0  0  0  0  0  0  0  0  0  0  0  0
    0.9313   -1.2216    0.0000 O   0  0  0  0  0  0  0  0  0  0  0  0
   -0.4951   -2.0451    0.0000 F   0  0  0  0  0  0  0  0  0  0  0  0
    0.2169   -3.2783    0.0000 F   0  0  0  0  0  0  0  0  0  0  0  0
   -0.4976   -2.8687    0.0000 F   0  0  0  0  0  0  0  0  0  0  0  0
  1  2  1  0      
  2  3  1  0      
  2  4  1  0      
  4  5  1  0      
  5  6  1  6      
  6  7  1  0      
  7  8  2  0      
  8  9  1  0      
  9 10  1  0      
 10 11  2  0      
 11 12  1  0      
  9 13  2  0      
 12 13  1  0      
 13 14  1  0      
 14 15  1  0      
  7 15  1  0      
 15 16  1  0      
 16 17  1  0      
 17 18  2  0      
 14 19  2  0      
  5 20  1  0      
 20 21  1  0      
  3 21  1  0      
 21 22  1  6      
 22 23  1  0      
 23 24  2  0      
 22 25  2  0      
 25 26  1  0      
 26 27  2  0      
 24 27  1  0      
 27 28  1  0      
 28 29  1  0      
 29 30  1  0      
 30 31  2  0      
 31 32  1  0      
 32 33  2  0      
 33 34  1  0      
 34 35  2  0      
 30 35  1  0      
 36 37  1  0      
 37 38  1  0      
 37 39  2  0      
 36 40  1  0      
 36 41  1  0      
 36 42  1  0      
M  END

>  <RackCode>
HYCPK72334

>  <Cat. No.>
HY-141539A

>  <Product Name>
SETDB1-TTD-IN-1 (TFA)

>  <ROW>
I

>  <COLUMN>
20

>  <CAS No.>


>  <MWt>
583.60

>  <Target>
Histone Methyltransferase

>  <Saltdate>
Trifluoroacetate

>  <Smiles>
CN1C[C@@H](C2=CC=C(OCC3=CC=CC=C3)C=C2)C[C@@H](NC4=NC5=C(C(N4CC=C)=O)NC=C5)C1.OC(C(F)(F)F)=O

>  <Solvent>
DMSO Solution

>  <Batch No.>
153170

>  <Quantity>
10mM  * 50uL

>  <Pathway>
Epigenetics

>  <Synonyms>


>  <Formula>
C30H32F3N5O4

>  <Research_Area>
Cancer

>  <Clinical_Information>
No Development Reported

>  <SUPPLIER>
MedChemExpress

$$$$
Untitled Document
  ChemDraw05162213482D

 30 32  0  0  0  0  0  0  0  0999 V2000
   -5.7513    1.8563    0.0000 N   0  0  0  0  0  0  0  0  0  0  0  0
   -5.0368    1.4437    0.0000 C   0  0  0  0  0  0  0  0  0  0  0  0
   -4.3224    1.0313    0.0000 C   0  0  0  0  0  0  0  0  0  0  0  0
   -3.6079    1.4437    0.0000 C   0  0  0  0  0  0  0  0  0  0  0  0
   -2.8935    1.0313    0.0000 C   0  0  0  0  0  0  0  0  0  0  0  0
   -2.8935    0.2062    0.0000 C   0  0  0  0  0  0  0  0  0  0  0  0
   -2.1790   -0.2062    0.0000 N   0  0  0  0  0  0  0  0  0  0  0  0
   -1.4646    0.2062    0.0000 C   0  0  0  0  0  0  0  0  0  0  0  0
   -1.4646    1.0313    0.0000 O   0  0  0  0  0  0  0  0  0  0  0  0
   -0.7501   -0.2062    0.0000 C   0  0  0  0  0  0  0  0  0  0  0  0
   -0.7501   -1.0313    0.0000 C   0  0  0  0  0  0  0  0  0  0  0  0
   -0.7501   -1.8563    0.0000 N   0  0  0  0  0  0  0  0  0  0  0  0
   -0.0356    0.2062    0.0000 C   0  0  0  0  0  0  0  0  0  0  0  0
    0.6788   -0.2062    0.0000 C   0  0  0  0  0  0  0  0  0  0  0  0
    0.7651   -1.0267    0.0000 C   0  0  0  0  0  0  0  0  0  0  0  0
    1.5721   -1.1983    0.0000 C   0  0  0  0  0  0  0  0  0  0  0  0
    1.9846   -0.4838    0.0000 C   0  0  0  0  0  0  0  0  0  0  0  0
    2.8050   -0.3976    0.0000 C   0  0  0  0  0  0  0  0  0  0  0  0
    3.2899   -1.0650    0.0000 C   0  0  0  0  0  0  0  0  0  0  0  0
    4.1103   -0.9788    0.0000 C   0  0  0  0  0  0  0  0  0  0  0  0
    4.4459   -0.2251    0.0000 C   0  0  0  0  0  0  0  0  0  0  0  0
    5.2664   -0.1388    0.0000 C   0  0  0  0  0  0  0  0  0  0  0  0
    5.6019    0.6148    0.0000 O   0  0  0  0  0  0  0  0  0  0  0  0
    5.7513   -0.8063    0.0000 O   0  0  0  0  0  0  0  0  0  0  0  0
    3.9610    0.4424    0.0000 C   0  0  0  0  0  0  0  0  0  0  0  0
    3.1405    0.3561    0.0000 C   0  0  0  0  0  0  0  0  0  0  0  0
    1.4325    0.1293    0.0000 O   0  0  0  0  0  0  0  0  0  0  0  0
   -3.6079   -0.2062    0.0000 C   0  0  0  0  0  0  0  0  0  0  0  0
   -4.3224    0.2062    0.0000 C   0  0  0  0  0  0  0  0  0  0  0  0
   -5.0368   -0.2062    0.0000 F   0  0  0  0  0  0  0  0  0  0  0  0
  1  2  3  0      
  2  3  1  0      
  3  4  2  0      
  4  5  1  0      
  5  6  2  0      
  6  7  1  0      
  7  8  1  0      
  8  9  2  0      
  8 10  1  0      
 10 11  1  0      
 11 12  3  0      
 10 13  2  0      
 13 14  1  0      
 14 15  2  0      
 15 16  1  0      
 16 17  2  0      
 17 18  1  0      
 18 19  2  0      
 19 20  1  0      
 20 21  2  0      
 21 22  1  0      
 22 23  2  0      
 22 24  1  0      
 21 25  1  0      
 25 26  2  0      
 18 26  1  0      
 17 27  1  0      
 14 27  1  0      
  6 28  1  0      
 28 29  2  0      
  3 29  1  0      
 29 30  1  0      
M  END

>  <RackCode>
HYCPK72334

>  <Cat. No.>
HY-146387

>  <Product Name>
SIRT5 inhibitor 3

>  <ROW>
J

>  <COLUMN>
20

>  <CAS No.>
2128651-12-5

>  <MWt>
401.35

>  <Target>
Sirtuin

>  <Saltdate>


>  <Smiles>
N#CC1=CC=C(C=C1F)NC(/C(C#N)=C/C2=CC=C(O2)C3=CC=C(C=C3)C(O)=O)=O

>  <Solvent>
DMSO Solution

>  <Batch No.>
277829

>  <Quantity>
10mM  * 50uL

>  <Pathway>
Cell Cycle/DNA Damage; Epigenetics

>  <Synonyms>


>  <Formula>
C22H12FN3O4

>  <Research_Area>
Cancer; Neurological Disease

>  <Clinical_Information>
No Development Reported

>  <SUPPLIER>
MedChemExpress

$$$$
Untitled Document
  ChemDraw05231616552D

 39 44  0  0  0  0  0  0  0  0999 V2000
   -2.1280   -3.1173    0.0000 C   0  0  0  0  0  0  0  0  0  0  0  0
   -2.2996   -2.3104    0.0000 C   0  0  0  0  0  0  0  0  0  0  0  0
   -1.6864   -1.7583    0.0000 C   0  0  0  0  0  0  0  0  0  0  0  0
   -1.3434   -3.3722    0.0000 C   0  0  0  0  0  0  0  0  0  0  0  0
   -0.7303   -2.8203    0.0000 C   0  0  0  0  0  0  0  0  0  0  0  0
    0.0543   -3.0752    0.0000 C   0  0  0  0  0  0  0  0  0  0  0  0
    0.6674   -2.5231    0.0000 C   0  0  0  0  0  0  0  0  0  0  0  0
    0.4958   -1.7161    0.0000 C   0  0  0  0  0  0  0  0  0  0  0  0
    0.9808   -1.0487    0.0000 C   0  0  0  0  0  0  0  0  0  0  0  0
    0.9808   -1.8737    0.0000 H   0  0  0  0  0  0  0  0  0  0  0  0
    1.8013   -0.9625    0.0000 C   0  0  0  0  0  0  0  0  0  0  0  0
    2.1368   -0.2088    0.0000 C   0  0  0  0  0  0  0  0  0  0  0  0
    1.6520    0.4587    0.0000 C   0  0  0  0  0  0  0  0  0  0  0  0
    2.4724    0.5450    0.0000 H   0  0  0  0  0  0  0  0  0  0  0  0
    1.9875    1.2124    0.0000 C   0  0  0  0  0  0  0  0  0  0  0  0
    2.7411    0.8768    0.0000 C   0  0  0  0  0  0  0  0  0  0  0  0
    1.5025    1.8798    0.0000 C   0  0  0  0  0  0  0  0  0  0  0  0
    2.3231    1.9660    0.0000 H   0  0  0  0  0  0  0  0  0  0  0  0
    1.8380    2.6334    0.0000 C   0  0  0  0  0  0  0  0  0  0  0  0
    1.3532    3.3010    0.0000 C   0  0  0  0  0  0  0  0  0  0  0  0
    0.5328    3.2147    0.0000 C   0  0  0  0  0  0  0  0  0  0  0  0
    0.0478    3.8822    0.0000 C   0  0  0  0  0  0  0  0  0  0  0  0
    0.1971    2.4611    0.0000 C   0  0  0  0  0  0  0  0  0  0  0  0
    0.6821    1.7935    0.0000 N   0  0  0  0  0  0  0  0  0  0  0  0
    0.3465    1.0399    0.0000 C   0  0  0  0  0  0  0  0  0  0  0  0
    0.8314    0.3725    0.0000 C   0  0  0  0  0  0  0  0  0  0  0  0
    0.0309    0.5720    0.0000 H   0  0  0  0  0  0  0  0  0  0  0  0
    0.4958   -0.3813    0.0000 C   0  0  0  0  0  0  0  0  0  0  0  0
   -0.2326    0.0060    0.0000 H   0  0  0  0  0  0  0  0  0  0  0  0
   -0.2887   -0.6362    0.0000 C   0  0  0  0  0  0  0  0  0  0  0  0
   -0.2887   -1.4612    0.0000 C   0  0  0  0  0  0  0  0  0  0  0  0
   -0.9019   -2.0133    0.0000 C   0  0  0  0  0  0  0  0  0  0  0  0
   -0.9019   -1.1883    0.0000 C   0  0  0  0  0  0  0  0  0  0  0  0
    0.2258   -3.8822    0.0000 O   0  0  0  0  0  0  0  0  0  0  0  0
    2.6549    1.6972    0.0000 O   0  0  0  0  0  0  0  0  0  0  0  0
   -2.7411   -3.6693    0.0000 O   0  0  0  0  0  0  0  0  0  0  0  0
   -0.2887   -2.2863    0.0000 H   0  0  0  0  0  0  0  0  0  0  0  0
    0.4958   -0.8912    0.0000 H   0  0  0  0  0  0  0  0  0  0  0  0
   -0.7303   -3.6452    0.0000 H   0  0  0  0  0  0  0  0  0  0  0  0
  1  2  1  0      
  2  3  1  0      
  1  4  1  0      
  4  5  1  0      
  5  6  1  0      
  6  7  1  0      
  7  8  1  0      
  8  9  1  0      
  9 10  1  6      
  9 11  1  0      
 11 12  1  0      
 12 13  1  0      
 13 14  1  6      
 13 15  1  0      
 15 16  1  6      
 15 17  1  0      
 17 18  1  6      
 17 19  1  0      
 19 20  1  0      
 20 21  1  0      
 21 22  1  1      
 21 23  1  0      
 23 24  1  0      
 17 24  1  0      
 24 25  1  0      
 25 26  1  0      
 26 27  1  1      
 13 26  1  0      
 26 28  1  0      
 28 29  1  6      
  9 28  1  0      
 28 30  1  0      
 30 31  1  0      
  8 31  1  0      
 31 32  1  0      
  3 32  1  0      
  5 32  1  0      
 32 33  1  1      
  6 34  2  0      
 15 35  1  1      
  1 36  1  1      
 31 37  1  6      
  8 38  1  1      
  5 39  1  6      
M  END

>  <RackCode>
HYCPK72334

>  <Cat. No.>
HY-N0213

>  <Product Name>
Peiminine

>  <ROW>
K

>  <COLUMN>
20

>  <CAS No.>
18059-10-4

>  <MWt>
429.64

>  <Target>
Apoptosis; Autophagy; Bcl-2 Family; Caspase; ERK; NF-¦ÊB; p38 MAPK; PARP

>  <Saltdate>
Free Base

>  <Smiles>
[H][C@]12[C@]3([H])CC([C@@]4([H])C[C@@H](O)CC[C@]4(C)[C@@]3([H])C[C@]([H])1[C@]5([H])CN6C[C@@H](C)CC[C@]([H])6[C@@](C)(O)[C@]([H])5CC2)=O

>  <Solvent>
DMSO Solution

>  <Batch No.>
88959

>  <Quantity>
10mM  * 50uL

>  <Pathway>
Apoptosis; Autophagy; Cell Cycle/DNA Damage; Epigenetics; MAPK/ERK Pathway; NF-¦ÊB; Stem Cell/Wnt

>  <Synonyms>
Verticinone; Raddeanine

>  <Formula>
C27H43NO3

>  <Research_Area>
Cancer; Inflammation/Immunology

>  <Clinical_Information>
No Development Reported

>  <SUPPLIER>
MedChemExpress

$$$$
Untitled Document
  ChemDraw08282310062D

 20 22  0  0  0  0  0  0  0  0999 V2000
   -1.0717    0.2063    0.0000 N   0  0  0  0  0  0  0  0  0  0  0  0
   -0.3572   -0.2063    0.0000 C   0  0  0  0  0  0  0  0  0  0  0  0
   -0.3572   -1.0313    0.0000 N   0  0  0  0  0  0  0  0  0  0  0  0
   -1.0717   -1.4438    0.0000 C   0  0  0  0  0  0  0  0  0  0  0  0
   -1.7861   -1.0313    0.0000 C   0  0  0  0  0  0  0  0  0  0  0  0
   -2.5005   -1.4438    0.0000 C   0  0  0  0  0  0  0  0  0  0  0  0
   -3.2150   -1.0313    0.0000 C   0  0  0  0  0  0  0  0  0  0  0  0
   -3.2150   -0.2063    0.0000 C   0  0  0  0  0  0  0  0  0  0  0  0
   -2.5005    0.2063    0.0000 C   0  0  0  0  0  0  0  0  0  0  0  0
   -1.7861   -0.2063    0.0000 C   0  0  0  0  0  0  0  0  0  0  0  0
   -1.0717   -2.2687    0.0000 O   0  0  0  0  0  0  0  0  0  0  0  0
    0.3572    0.2063    0.0000 C   0  0  0  0  0  0  0  0  0  0  0  0
    0.3572    1.0313    0.0000 C   0  0  0  0  0  0  0  0  0  0  0  0
    1.0717    1.4438    0.0000 C   0  0  0  0  0  0  0  0  0  0  0  0
    1.7861    1.0313    0.0000 C   0  0  0  0  0  0  0  0  0  0  0  0
    1.7861    0.2063    0.0000 C   0  0  0  0  0  0  0  0  0  0  0  0
    1.0717   -0.2063    0.0000 C   0  0  0  0  0  0  0  0  0  0  0  0
    2.5005    1.4438    0.0000 N   0  3  0  0  0  0  0  0  0  0  0  0
    2.5005    2.2687    0.0000 O   0  0  0  0  0  0  0  0  0  0  0  0
    3.2150    1.0313    0.0000 O   0  5  0  0  0  0  0  0  0  0  0  0
  1  2  1  0      
  2  3  2  0      
  3  4  1  0      
  4  5  1  0      
  5  6  1  0      
  6  7  2  0      
  7  8  1  0      
  8  9  2  0      
  9 10  1  0      
  1 10  1  0      
  5 10  2  0      
  4 11  2  0      
 12 13  1  0      
 13 14  2  0      
 14 15  1  0      
 15 16  2  0      
 16 17  1  0      
 12 17  2  0      
 18 19  2  0      
 18 20  1  0      
 15 18  1  0      
  2 12  1  0      
M  CHG  2  18   1  20  -1
M  END

>  <RackCode>
HYCPK72334

>  <Cat. No.>
HY-23338

>  <Product Name>
TNKS-2-IN-1

>  <ROW>
L

>  <COLUMN>
20

>  <CAS No.>
4765-59-7

>  <MWt>
267.24

>  <Target>
PARP

>  <Saltdate>


>  <Smiles>
O=C1N=C(C2=CC=C([N+]([O-])=O)C=C2)NC3=C1C=CC=C3

>  <Solvent>
DMSO Solution

>  <Batch No.>
41104

>  <Quantity>
10mM  * 50uL

>  <Pathway>
Cell Cycle/DNA Damage; Epigenetics

>  <Synonyms>


>  <Formula>
C14H9N3O3

>  <Research_Area>
Others

>  <Clinical_Information>
No Development Reported

>  <SUPPLIER>
MedChemExpress

$$$$
Untitled Document
  ChemDraw08091709292D

 80 89  0  0  0  0  0  0  0  0999 V2000
    5.0028    1.6443    0.0000 O   0  0  0  0  0  0  0  0  0  0  0  0
    5.0028    2.4693    0.0000 C   0  0  0  0  0  0  0  0  0  0  0  0
    4.2905    2.0469    0.0000 C   0  0  0  0  0  0  0  0  0  0  0  0
    4.2905    2.8719    0.0000 C   0  0  0  0  0  0  0  0  0  0  0  0
    4.2905    1.2192    0.0000 C   0  0  0  0  0  0  0  0  0  0  0  0
    5.7152    1.2192    0.0000 C   0  0  0  0  0  0  0  0  0  0  0  0
    5.7152    2.0469    0.0000 C   0  0  0  0  0  0  0  0  0  0  0  0
    6.4255    2.4693    0.0000 O   0  0  0  0  0  0  0  0  0  0  0  0
    6.4255    3.2988    0.0000 C   0  0  0  0  0  0  0  0  0  0  0  0
    5.0028    3.2988    0.0000 C   0  0  0  0  0  0  0  0  0  0  0  0
    4.4194    3.8815    0.0000 C   0  0  0  0  0  0  0  0  0  0  0  0
    6.4255    4.1262    0.0000 C   0  0  0  0  0  0  0  0  0  0  0  0
    7.1378    4.5400    0.0000 C   0  0  0  0  0  0  0  0  0  0  0  0
    7.8503    4.1262    0.0000 C   0  0  0  0  0  0  0  0  0  0  0  0
    7.8503    3.2988    0.0000 C   0  0  0  0  0  0  0  0  0  0  0  0
    7.1378    2.8830    0.0000 O   0  0  0  0  0  0  0  0  0  0  0  0
    8.5647    4.5420    0.0000 C   0  0  0  0  0  0  0  0  0  0  0  0
    5.7152    2.8719    0.0000 H   0  0  0  0  0  0  0  0  0  0  0  0
    3.5782    0.8055    0.0000 C   0  0  0  0  0  0  0  0  0  0  0  0
    2.8679    1.2192    0.0000 C   0  0  0  0  0  0  0  0  0  0  0  0
    2.8679    2.0469    0.0000 C   0  0  0  0  0  0  0  0  0  0  0  0
    3.5782    2.4693    0.0000 C   0  0  0  0  0  0  0  0  0  0  0  0
    2.1473    0.8193    0.0000 C   0  0  0  0  0  0  0  0  0  0  0  0
    2.1473    1.6443    0.0000 C   0  0  0  0  0  0  0  0  0  0  0  0
    2.1473   -0.0057    0.0000 C   0  0  0  0  0  0  0  0  0  0  0  0
    2.8658   -0.4260    0.0000 C   0  0  0  0  0  0  0  0  0  0  0  0
    3.5802   -0.0195    0.0000 C   0  0  0  0  0  0  0  0  0  0  0  0
    1.4370   -0.4260    0.0000 C   0  0  0  0  0  0  0  0  0  0  0  0
    0.7247   -0.0123    0.0000 C   0  0  0  0  0  0  0  0  0  0  0  0
    0.7247    0.8238    0.0000 C   0  0  0  0  0  0  0  0  0  0  0  0
    1.4370    1.2309    0.0000 C   0  0  0  0  0  0  0  0  0  0  0  0
    0.0103   -0.4281    0.0000 O   0  0  0  0  0  0  0  0  0  0  0  0
   -0.7041   -0.0123    0.0000 C   0  0  0  0  0  0  0  0  0  0  0  0
   -1.4185   -0.4281    0.0000 C   0  0  0  0  0  0  0  0  0  0  0  0
   -1.4185   -2.0670    0.0000 O   0  0  0  0  0  0  0  0  0  0  0  0
   -2.1329   -2.4762    0.0000 C   0  0  0  0  0  0  0  0  0  0  0  0
   -2.8454   -2.0670    0.0000 C   0  0  0  0  0  0  0  0  0  0  0  0
   -2.8454   -1.2420    0.0000 O   0  0  0  0  0  0  0  0  0  0  0  0
   -3.5617   -2.4762    0.0000 C   0  0  0  0  0  0  0  0  0  0  0  0
   -4.2761   -2.0670    0.0000 O   0  0  0  0  0  0  0  0  0  0  0  0
   -3.5617   -3.3012    0.0000 C   0  0  0  0  0  0  0  0  0  0  0  0
   -2.8454   -3.7170    0.0000 C   0  0  0  0  0  0  0  0  0  0  0  0
   -2.1329   -3.3012    0.0000 O   0  0  0  0  0  0  0  0  0  0  0  0
   -2.8454   -4.5420    0.0000 C   0  0  0  0  0  0  0  0  0  0  0  0
   -4.2761   -3.7170    0.0000 O   0  0  0  0  0  0  0  0  0  0  0  0
   -1.4185   -2.8920    0.0000 H   0  0  0  0  0  0  0  0  0  0  0  0
   -2.1349   -0.0123    0.0000 C   0  0  0  0  0  0  0  0  0  0  0  0
   -2.8493   -0.4281    0.0000 O   0  0  0  0  0  0  0  0  0  0  0  0
   -2.1349    0.8127    0.0000 C   0  0  0  0  0  0  0  0  0  0  0  0
   -1.4185    1.2219    0.0000 C   0  0  0  0  0  0  0  0  0  0  0  0
   -0.7041    0.8127    0.0000 O   0  0  0  0  0  0  0  0  0  0  0  0
   -1.4185    2.0469    0.0000 C   0  0  0  0  0  0  0  0  0  0  0  0
   -2.1329    2.4627    0.0000 O   0  0  0  0  0  0  0  0  0  0  0  0
   -2.8493    1.2219    0.0000 O   0  0  0  0  0  0  0  0  0  0  0  0
   -3.5637    0.8127    0.0000 C   0  0  0  0  0  0  0  0  0  0  0  0
   -4.2761    1.2219    0.0000 C   0  0  0  0  0  0  0  0  0  0  0  0
   -4.2761    2.0469    0.0000 O   0  0  0  0  0  0  0  0  0  0  0  0
   -4.9925    0.8127    0.0000 C   0  0  0  0  0  0  0  0  0  0  0  0
   -5.7069    1.2219    0.0000 O   0  0  0  0  0  0  0  0  0  0  0  0
   -4.9925   -0.0123    0.0000 C   0  0  0  0  0  0  0  0  0  0  0  0
   -4.2761   -0.4281    0.0000 C   0  0  0  0  0  0  0  0  0  0  0  0
   -3.5637   -0.0123    0.0000 O   0  0  0  0  0  0  0  0  0  0  0  0
   -4.2761   -1.2531    0.0000 C   0  0  0  0  0  0  0  0  0  0  0  0
   -5.7069   -0.4281    0.0000 O   0  0  0  0  0  0  0  0  0  0  0  0
   -6.4213   -0.0123    0.0000 C   0  0  0  0  0  0  0  0  0  0  0  0
   -7.1339   -0.4281    0.0000 C   0  0  0  0  0  0  0  0  0  0  0  0
   -7.1339   -1.2531    0.0000 O   0  0  0  0  0  0  0  0  0  0  0  0
   -7.8503   -0.0123    0.0000 C   0  0  0  0  0  0  0  0  0  0  0  0
   -8.5647   -0.4281    0.0000 O   0  0  0  0  0  0  0  0  0  0  0  0
   -7.8503    0.8127    0.0000 C   0  0  0  0  0  0  0  0  0  0  0  0
   -7.1339    1.2219    0.0000 C   0  0  0  0  0  0  0  0  0  0  0  0
   -6.4213    0.8127    0.0000 O   0  0  0  0  0  0  0  0  0  0  0  0
   -7.1339    2.0469    0.0000 C   0  0  0  0  0  0  0  0  0  0  0  0
   -8.5647    1.2219    0.0000 O   0  0  0  0  0  0  0  0  0  0  0  0
   -6.4213   -0.8373    0.0000 H   0  0  0  0  0  0  0  0  0  0  0  0
   -2.8493    0.3969    0.0000 H   0  0  0  0  0  0  0  0  0  0  0  0
   -0.7041   -0.8373    0.0000 H   0  0  0  0  0  0  0  0  0  0  0  0
    2.8679    0.3942    0.0000 H   0  0  0  0  0  0  0  0  0  0  0  0
    3.5782    1.6305    0.0000 H   0  0  0  0  0  0  0  0  0  0  0  0
    4.2905    0.3942    0.0000 H   0  0  0  0  0  0  0  0  0  0  0  0
  2  1  1  6      
  2  3  1  0      
  2  7  1  0      
  2 10  1  0      
  3  4  1  1      
  3  5  1  0      
  3 22  1  0      
  5  6  1  0      
  5 19  1  0      
  5 80  1  6      
  7  6  1  0      
  7  8  1  0      
  7 18  1  6      
  8  9  1  0      
 10  9  1  0      
  9 12  1  1      
  9 16  1  6      
 10 11  1  6      
 12 13  1  0      
 13 14  1  0      
 15 14  1  0      
 14 17  1  1      
 16 15  1  0      
 19 20  1  0      
 19 27  1  0      
 19 79  1  1      
 21 20  1  0      
 20 23  1  0      
 20 78  1  6      
 22 21  1  0      
 23 24  1  1      
 23 25  1  0      
 23 31  1  0      
 26 25  2  0      
 25 28  1  0      
 27 26  1  0      
 28 29  1  0      
 30 29  1  0      
 29 32  1  1      
 31 30  1  0      
 32 33  1  0      
 33 34  1  0      
 33 51  1  0      
 33 77  1  6      
 34 35  1  6      
 34 47  1  0      
 35 36  1  0      
 36 37  1  0      
 36 43  1  0      
 36 46  1  1      
 37 38  1  1      
 37 39  1  0      
 39 40  1  1      
 39 41  1  0      
 42 41  1  0      
 41 45  1  6      
 43 42  1  0      
 42 44  1  1      
 47 48  1  1      
 47 49  1  0      
 50 49  1  0      
 49 54  1  6      
 51 50  1  0      
 50 52  1  1      
 52 53  1  0      
 54 55  1  0      
 55 56  1  0      
 55 62  1  0      
 55 76  1  1      
 56 57  1  1      
 56 58  1  0      
 58 59  1  1      
 58 60  1  0      
 61 60  1  0      
 60 64  1  6      
 62 61  1  0      
 61 63  1  1      
 64 65  1  0      
 65 66  1  0      
 65 72  1  0      
 65 75  1  6      
 66 67  1  6      
 66 68  1  0      
 68 69  1  6      
 68 70  1  0      
 71 70  1  0      
 70 74  1  1      
 72 71  1  0      
 71 73  1  6      
M  END

>  <RackCode>
HYCPK72334

>  <Cat. No.>
HY-N3584

>  <Product Name>
Paris saponin VII

>  <ROW>
M

>  <COLUMN>
20

>  <CAS No.>
68124-04-9

>  <MWt>
1031.18

>  <Target>
Akt; Apoptosis; Autophagy; Bcl-2 Family; Caspase; p38 MAPK; PARP; P-glycoprotein

>  <Saltdate>
Free Base

>  <Smiles>
O[C@@]12[C@@]3([C@@]([C@@]4([H])[C@]([C@@]5(C(C[C@@H](O[C@@]6([H])[C@@H]([C@H]([C@H](O[C@@]7([H])[C@@H]([C@@H]([C@@H](O[C@@]8([H])[C@@H]([C@@H]([C@@H](O)[C@H](C)O8)O)O)[C@H](C)O7)O)O)[C@@H](CO)O6)O)O[C@@]9([H])[C@@H]([C@@H]([C@@H](O)[C@H](C)O9)O)O)CC5)=CC4)C)([H])CC3)([H])C[C@]1([H])O[C@]%10(CC[C@@H](C)CO%10)[C@H]2C)C

>  <Solvent>
DMSO Solution

>  <Batch No.>
125626

>  <Quantity>
10mM  * 50uL

>  <Pathway>
Apoptosis; Autophagy; Cell Cycle/DNA Damage; Epigenetics; MAPK/ERK Pathway; Membrane Transporter/Ion Channel; PI3K/Akt/mTOR

>  <Synonyms>
Chonglou Saponin VII

>  <Formula>
C51H82O21

>  <Research_Area>
Cancer

>  <Clinical_Information>
No Development Reported

>  <SUPPLIER>
MedChemExpress

$$$$
Untitled Document
  ChemDraw01281611302D

 23 25  0  0  0  0  0  0  0  0999 V2000
    0.3572    0.2062    0.0000 C   0  0  0  0  0  0  0  0  0  0  0  0
    0.3572   -0.6187    0.0000 C   0  0  0  0  0  0  0  0  0  0  0  0
   -0.3572   -1.0313    0.0000 C   0  0  0  0  0  0  0  0  0  0  0  0
   -1.0717   -0.6187    0.0000 C   0  0  0  0  0  0  0  0  0  0  0  0
   -1.0717    0.2062    0.0000 C   0  0  0  0  0  0  0  0  0  0  0  0
   -0.3572    0.6187    0.0000 O   0  0  0  0  0  0  0  0  0  0  0  0
   -1.7862    0.6187    0.0000 C   0  0  0  0  0  0  0  0  0  0  0  0
   -2.5006    0.2062    0.0000 C   0  0  0  0  0  0  0  0  0  0  0  0
   -2.5006   -0.6187    0.0000 C   0  0  0  0  0  0  0  0  0  0  0  0
   -1.7862   -1.0313    0.0000 C   0  0  0  0  0  0  0  0  0  0  0  0
   -0.3572   -1.8563    0.0000 O   0  0  0  0  0  0  0  0  0  0  0  0
   -3.2151    0.6187    0.0000 O   0  0  0  0  0  0  0  0  0  0  0  0
   -3.9296    0.2062    0.0000 C   0  0  0  0  0  0  0  0  0  0  0  0
    1.0717    0.6187    0.0000 C   0  0  0  0  0  0  0  0  0  0  0  0
    1.7862    0.2062    0.0000 C   0  0  0  0  0  0  0  0  0  0  0  0
    2.5006    0.6187    0.0000 C   0  0  0  0  0  0  0  0  0  0  0  0
    2.5006    1.4438    0.0000 C   0  0  0  0  0  0  0  0  0  0  0  0
    1.7862    1.8563    0.0000 C   0  0  0  0  0  0  0  0  0  0  0  0
    1.0717    1.4438    0.0000 C   0  0  0  0  0  0  0  0  0  0  0  0
    3.2151    0.2062    0.0000 O   0  0  0  0  0  0  0  0  0  0  0  0
    3.9296    0.6187    0.0000 C   0  0  0  0  0  0  0  0  0  0  0  0
    3.2151    1.8563    0.0000 O   0  0  0  0  0  0  0  0  0  0  0  0
   -1.7862   -1.8563    0.0000 O   0  0  0  0  0  0  0  0  0  0  0  0
  1  2  2  0      
  2  3  1  0      
  3  4  1  0      
  4  5  1  0      
  5  6  1  0      
  1  6  1  0      
  7  8  1  0      
  8  9  2  0      
  9 10  1  0      
  4 10  2  0      
  5  7  2  0      
  3 11  2  0      
 12 13  1  0      
  8 12  1  0      
 14 15  1  0      
 15 16  2  0      
 16 17  1  0      
 17 18  2  0      
 18 19  1  0      
 14 19  2  0      
 20 21  1  0      
 16 20  1  0      
 17 22  1  0      
  1 14  1  0      
 10 23  1  0      
M  END

>  <RackCode>
HYCPK72334

>  <Cat. No.>
HY-N1098

>  <Product Name>
Velutin

>  <ROW>
N

>  <COLUMN>
20

>  <CAS No.>
25739-41-7

>  <MWt>
314.29

>  <Target>
HIF/HIF Prolyl-Hydroxylase

>  <Saltdate>


>  <Smiles>
O=C1C=C(C2=CC=C(O)C(OC)=C2)OC3=CC(OC)=CC(O)=C13

>  <Solvent>
DMSO Solution

>  <Batch No.>
124228

>  <Quantity>
10mM  * 50uL

>  <Pathway>
Metabolic Enzyme/Protease

>  <Synonyms>


>  <Formula>
C17H14O6

>  <Research_Area>
Inflammation/Immunology

>  <Clinical_Information>
No Development Reported

>  <SUPPLIER>
MedChemExpress

$$$$
Untitled Document
  ChemDraw03042417222D

 24 26  0  0  0  0  0  0  0  0999 V2000
   -3.5233   -1.4096    0.0000 C   0  0  0  0  0  0  0  0  0  0  0  0
   -3.5233   -2.2346    0.0000 C   0  0  0  0  0  0  0  0  0  0  0  0
   -2.8088   -2.6471    0.0000 C   0  0  0  0  0  0  0  0  0  0  0  0
   -2.0943   -2.2346    0.0000 C   0  0  0  0  0  0  0  0  0  0  0  0
   -2.0943   -1.4096    0.0000 C   0  0  0  0  0  0  0  0  0  0  0  0
   -2.8088   -0.9971    0.0000 C   0  0  0  0  0  0  0  0  0  0  0  0
   -1.3799   -0.9971    0.0000 C   0  0  0  0  0  0  0  0  0  0  0  0
   -0.6654   -1.4096    0.0000 N   0  0  0  0  0  0  0  0  0  0  0  0
    0.0491   -0.9971    0.0000 C   0  0  0  0  0  0  0  0  0  0  0  0
    0.7636   -1.4096    0.0000 N   0  0  0  0  0  0  0  0  0  0  0  0
    1.4780   -0.9971    0.0000 C   0  0  0  0  0  0  0  0  0  0  0  0
    1.4780   -0.1721    0.0000 C   0  0  0  0  0  0  0  0  0  0  0  0
    0.7636    0.2404    0.0000 C   0  0  0  0  0  0  0  0  0  0  0  0
    0.0491   -0.1721    0.0000 N   0  0  0  0  0  0  0  0  0  0  0  0
    2.1900    0.2389    0.0000 C   0  0  0  0  0  0  0  0  0  0  0  0
    2.9437   -0.0966    0.0000 N   0  0  0  0  0  0  0  0  0  0  0  0
    3.4957    0.5165    0.0000 N   0  0  0  0  0  0  0  0  0  0  0  0
    3.0832    1.2309    0.0000 C   0  0  0  0  0  0  0  0  0  0  0  0
    2.2763    1.0594    0.0000 O   0  0  0  0  0  0  0  0  0  0  0  0
    3.4176    1.9820    0.0000 C   0  0  0  0  0  0  0  0  0  0  0  0
    4.2353    2.0679    0.0000 F   0  0  0  0  0  0  0  0  0  0  0  0
    2.9344    2.6471    0.0000 F   0  0  0  0  0  0  0  0  0  0  0  0
   -4.2353   -2.6457    0.0000 F   0  0  0  0  0  0  0  0  0  0  0  0
   -1.3799   -0.1750    0.0000 C   0  0  0  0  0  0  0  0  0  0  0  0
  1  2  2  0      
  2  3  1  0      
  3  4  2  0      
  4  5  1  0      
  5  6  2  0      
  6  1  1  0      
  5  7  1  0      
  7  8  1  0      
  8  9  1  0      
  9 10  2  0      
 10 11  1  0      
 11 12  2  0      
 12 13  1  0      
 13 14  2  0      
 14  9  1  0      
 12 15  1  0      
 15 16  2  0      
 16 17  1  0      
 17 18  2  0      
 18 19  1  0      
 19 15  1  0      
 18 20  1  0      
 20 21  1  0      
 20 22  1  0      
  2 23  1  0      
  7 24  1  0      
M  END

>  <RackCode>
HYCPK72334

>  <Cat. No.>
HY-161305

>  <Product Name>
SE-7552

>  <ROW>
O

>  <COLUMN>
20

>  <CAS No.>
2243575-79-1

>  <MWt>
335.28

>  <Target>
HDAC

>  <Saltdate>


>  <Smiles>
FC(F)C(O1)=NN=C1C(C=N2)=CN=C2NC(C)C3=CC=C(F)C=C3

>  <Solvent>
DMSO Solution

>  <Batch No.>
427596

>  <Quantity>
10mM  * 50uL

>  <Pathway>
Cell Cycle/DNA Damage; Epigenetics

>  <Synonyms>


>  <Formula>
C15H12F3N5O

>  <Research_Area>
Cancer; Metabolic Disease

>  <Clinical_Information>
No Development Reported

>  <SUPPLIER>
MedChemExpress

$$$$
Untitled Document
  ChemDraw09041812572D

 21 22  0  0  0  0  0  0  0  0999 V2000
    3.2151   -0.2063    0.0000 O   0  0  0  0  0  0  0  0  0  0  0  0
    3.2151    0.6187    0.0000 C   0  0  0  0  0  0  0  0  0  0  0  0
    3.9296    1.0313    0.0000 O   0  0  0  0  0  0  0  0  0  0  0  0
    2.5006    1.0313    0.0000 C   0  0  0  0  0  0  0  0  0  0  0  0
    1.7862    0.6187    0.0000 N   0  0  0  0  0  0  0  0  0  0  0  0
    1.0717    1.0313    0.0000 C   0  0  0  0  0  0  0  0  0  0  0  0
    0.3572    0.6187    0.0000 C   0  0  0  0  0  0  0  0  0  0  0  0
   -0.3572    1.0313    0.0000 N   0  0  0  0  0  0  0  0  0  0  0  0
   -1.0717    0.6187    0.0000 C   0  0  0  0  0  0  0  0  0  0  0  0
   -1.0717   -0.2063    0.0000 C   0  0  0  0  0  0  0  0  0  0  0  0
   -1.7862   -0.6188    0.0000 C   0  0  0  0  0  0  0  0  0  0  0  0
   -1.7862   -1.4438    0.0000 C   0  0  0  0  0  0  0  0  0  0  0  0
   -2.5006   -1.8563    0.0000 C   0  0  0  0  0  0  0  0  0  0  0  0
   -3.2151   -1.4438    0.0000 C   0  0  0  0  0  0  0  0  0  0  0  0
   -3.2151   -0.6188    0.0000 C   0  0  0  0  0  0  0  0  0  0  0  0
   -3.9296   -0.2063    0.0000 F   0  0  0  0  0  0  0  0  0  0  0  0
   -2.5006   -0.2063    0.0000 C   0  0  0  0  0  0  0  0  0  0  0  0
   -0.3572   -0.6188    0.0000 C   0  0  0  0  0  0  0  0  0  0  0  0
    0.3572   -0.2063    0.0000 C   0  0  0  0  0  0  0  0  0  0  0  0
    1.0717   -0.6188    0.0000 O   0  0  0  0  0  0  0  0  0  0  0  0
    1.0717    1.8563    0.0000 O   0  0  0  0  0  0  0  0  0  0  0  0
  1  2  2  0      
  2  3  1  0      
  2  4  1  0      
  4  5  1  0      
  5  6  1  0      
  6  7  1  0      
  7  8  2  0      
  8  9  1  0      
  9 10  2  0      
 10 11  1  0      
 11 12  2  0      
 12 13  1  0      
 13 14  2  0      
 14 15  1  0      
 15 16  1  0      
 15 17  2  0      
 11 17  1  0      
 10 18  1  0      
 18 19  2  0      
  7 19  1  0      
 19 20  1  0      
  6 21  2  0      
M  END

>  <RackCode>
HYCPK72334

>  <Cat. No.>
HY-113649

>  <Product Name>
AKB-6899

>  <ROW>
P

>  <COLUMN>
20

>  <CAS No.>
1007377-55-0

>  <MWt>
290.25

>  <Target>
HIF/HIF Prolyl-Hydroxylase

>  <Saltdate>


>  <Smiles>
O=C(CNC(C1=NC=C(C=C1O)C2=CC=CC(F)=C2)=O)O

>  <Solvent>
DMSO Solution

>  <Batch No.>
115237

>  <Quantity>
10mM  * 50uL

>  <Pathway>
Metabolic Enzyme/Protease

>  <Synonyms>


>  <Formula>
C14H11FN2O4

>  <Research_Area>
Cancer

>  <Clinical_Information>
No Development Reported

>  <SUPPLIER>
MedChemExpress

$$$$
Untitled Document
  ChemDraw10121713512D

 25 26  0  0  0  0  0  0  0  0999 V2000
    0.0010    0.4670    0.0000 S   0  0  0  0  0  0  0  0  0  0  0  0
   -0.4122    1.1829    0.0000 O   0  0  0  0  0  0  0  0  0  0  0  0
    0.4122    1.1829    0.0000 O   0  0  0  0  0  0  0  0  0  0  0  0
    0.7152    0.0575    0.0000 C   0  0  0  0  0  0  0  0  0  0  0  0
    0.7152   -0.7674    0.0000 C   0  0  0  0  0  0  0  0  0  0  0  0
    1.4314   -1.1829    0.0000 C   0  0  0  0  0  0  0  0  0  0  0  0
    2.1434   -0.7674    0.0000 C   0  0  0  0  0  0  0  0  0  0  0  0
    2.1434    0.0575    0.0000 C   0  0  0  0  0  0  0  0  0  0  0  0
    1.4314    0.4670    0.0000 C   0  0  0  0  0  0  0  0  0  0  0  0
    2.8576   -1.1829    0.0000 N   0  0  0  0  0  0  0  0  0  0  0  0
    3.5717   -0.7674    0.0000 C   0  0  0  0  0  0  0  0  0  0  0  0
    4.2859   -1.1829    0.0000 C   0  0  0  0  0  0  0  0  0  0  0  0
    5.0000   -0.7674    0.0000 Cl  0  0  0  0  0  0  0  0  0  0  0  0
    3.5717    0.0575    0.0000 O   0  0  0  0  0  0  0  0  0  0  0  0
   -0.7131    0.0575    0.0000 C   0  0  0  0  0  0  0  0  0  0  0  0
   -0.7131   -0.7674    0.0000 C   0  0  0  0  0  0  0  0  0  0  0  0
   -1.4293   -1.1829    0.0000 C   0  0  0  0  0  0  0  0  0  0  0  0
   -2.1414   -0.7674    0.0000 C   0  0  0  0  0  0  0  0  0  0  0  0
   -2.1414    0.0575    0.0000 C   0  0  0  0  0  0  0  0  0  0  0  0
   -1.4293    0.4670    0.0000 C   0  0  0  0  0  0  0  0  0  0  0  0
   -2.8555   -1.1829    0.0000 N   0  0  0  0  0  0  0  0  0  0  0  0
   -3.5717   -0.7674    0.0000 C   0  0  0  0  0  0  0  0  0  0  0  0
   -4.2858   -1.1829    0.0000 C   0  0  0  0  0  0  0  0  0  0  0  0
   -5.0000   -0.7674    0.0000 Cl  0  0  0  0  0  0  0  0  0  0  0  0
   -3.5717    0.0575    0.0000 O   0  0  0  0  0  0  0  0  0  0  0  0
  1  2  2  0      
  1  3  2  0      
  1  4  1  0      
  1 15  1  0      
  4  5  2  0      
  4  9  1  0      
  5  6  1  0      
  6  7  2  0      
  8  7  1  0      
  7 10  1  0      
  9  8  2  0      
 10 11  1  0      
 11 12  1  0      
 11 14  2  0      
 12 13  1  0      
 15 16  2  0      
 15 20  1  0      
 16 17  1  0      
 17 18  2  0      
 19 18  1  0      
 18 21  1  0      
 20 19  2  0      
 21 22  1  0      
 22 23  1  0      
 22 25  2  0      
 23 24  1  0      
M  END

>  <RackCode>
HYCPK72334

>  <Cat. No.>
HY-107574

>  <Product Name>
TC-E 5003

>  <ROW>
A

>  <COLUMN>
21

>  <CAS No.>
17328-16-4

>  <MWt>
401.26

>  <Target>
Histone Methyltransferase

>  <Saltdate>


>  <Smiles>
O=S(C1=CC=C(NC(CCl)=O)C=C1)(C2=CC=C(NC(CCl)=O)C=C2)=O

>  <Solvent>
DMSO Solution

>  <Batch No.>
146406

>  <Quantity>
10mM  * 50uL

>  <Pathway>
Epigenetics

>  <Synonyms>


>  <Formula>
C16H14Cl2N2O4S

>  <Research_Area>
Inflammation/Immunology

>  <Clinical_Information>
No Development Reported

>  <SUPPLIER>
MedChemExpress

$$$$
Untitled Document
  ChemDraw03282416232D

 54 59  0  0  0  0  0  0  0  0999 V2000
   -2.9982   -1.6860    0.0000 C   0  0  0  0  0  0  0  0  0  0  0  0
   -2.2839   -2.0985    0.0000 N   0  0  0  0  0  0  0  0  0  0  0  0
   -1.5694   -1.6860    0.0000 C   0  0  0  0  0  0  0  0  0  0  0  0
   -0.8549   -2.0985    0.0000 C   0  0  0  0  0  0  0  0  0  0  0  0
   -0.1404   -1.6860    0.0000 C   0  0  0  0  0  0  0  0  0  0  0  0
    0.5740   -2.0985    0.0000 C   0  0  0  0  0  0  0  0  0  0  0  0
    1.2885   -1.6860    0.0000 N   0  0  0  0  0  0  0  0  0  0  0  0
    2.0030   -2.0985    0.0000 C   0  0  0  0  0  0  0  0  0  0  0  0
    2.7173   -1.6860    0.0000 C   0  0  0  0  0  0  0  0  0  0  0  0
    2.7173   -0.8610    0.0000 O   0  0  0  0  0  0  0  0  0  0  0  0
    3.4318   -2.0985    0.0000 N   0  0  0  0  0  0  0  0  0  0  0  0
    4.1855   -1.7629    0.0000 C   0  0  0  0  0  0  0  0  0  0  0  0
    4.3570   -0.9560    0.0000 C   0  0  0  0  0  0  0  0  0  0  0  0
    3.7439   -0.4039    0.0000 N   0  0  0  0  0  0  0  0  0  0  0  0
    3.9154    0.4031    0.0000 C   0  0  0  0  0  0  0  0  0  0  0  0
    4.7001    0.6580    0.0000 C   0  0  0  0  0  0  0  0  0  0  0  0
    3.3024    0.9551    0.0000 C   0  0  0  0  0  0  0  0  0  0  0  0
    3.4739    1.7621    0.0000 C   0  0  0  0  0  0  0  0  0  0  0  0
    2.8608    2.3141    0.0000 C   0  0  0  0  0  0  0  0  0  0  0  0
    2.0763    2.0592    0.0000 C   0  0  0  0  0  0  0  0  0  0  0  0
    1.9047    1.2522    0.0000 C   0  0  0  0  0  0  0  0  0  0  0  0
    2.5178    0.7001    0.0000 C   0  0  0  0  0  0  0  0  0  0  0  0
    1.4632    2.6111    0.0000 C   0  0  0  0  0  0  0  0  0  0  0  0
    1.5494    3.4316    0.0000 C   0  0  0  0  0  0  0  0  0  0  0  0
    2.2639    3.8441    0.0000 C   0  0  0  0  0  0  0  0  0  0  0  0
    0.7957    3.7671    0.0000 N   0  0  0  0  0  0  0  0  0  0  0  0
    0.2437    3.1540    0.0000 C   0  0  0  0  0  0  0  0  0  0  0  0
    0.6562    2.4397    0.0000 S   0  0  0  0  0  0  0  0  0  0  0  0
    5.1416   -0.7010    0.0000 O   0  0  0  0  0  0  0  0  0  0  0  0
    4.7375   -2.3760    0.0000 C   0  0  0  0  0  0  0  0  0  0  0  0
    4.3250   -3.0904    0.0000 C   0  0  0  0  0  0  0  0  0  0  0  0
    4.6606   -3.8441    0.0000 O   0  0  0  0  0  0  0  0  0  0  0  0
    3.5180   -2.9189    0.0000 C   0  0  0  0  0  0  0  0  0  0  0  0
    2.0030   -2.9234    0.0000 C   0  0  0  0  0  0  0  0  0  0  0  0
    2.7173   -3.3359    0.0000 C   0  0  0  0  0  0  0  0  0  0  0  0
    1.2885   -3.3359    0.0000 C   0  0  0  0  0  0  0  0  0  0  0  0
    2.0030   -3.7484    0.0000 C   0  0  0  0  0  0  0  0  0  0  0  0
    0.5740   -2.9234    0.0000 O   0  0  0  0  0  0  0  0  0  0  0  0
   -1.5694   -0.8610    0.0000 O   0  0  0  0  0  0  0  0  0  0  0  0
   -2.9982   -0.8610    0.0000 C   0  0  0  0  0  0  0  0  0  0  0  0
   -3.6657   -0.3761    0.0000 C   0  0  0  0  0  0  0  0  0  0  0  0
   -3.4107    0.4086    0.0000 C   0  0  0  0  0  0  0  0  0  0  0  0
   -2.5858    0.4086    0.0000 C   0  0  0  0  0  0  0  0  0  0  0  0
   -2.3309   -0.3761    0.0000 O   0  0  0  0  0  0  0  0  0  0  0  0
   -2.1733    1.1230    0.0000 C   0  0  0  0  0  0  0  0  0  0  0  0
   -2.5858    1.8375    0.0000 C   0  0  0  0  0  0  0  0  0  0  0  0
   -3.4107    1.8375    0.0000 C   0  0  0  0  0  0  0  0  0  0  0  0
   -3.8232    1.1230    0.0000 C   0  0  0  0  0  0  0  0  0  0  0  0
   -3.7127   -2.0985    0.0000 C   0  0  0  0  0  0  0  0  0  0  0  0
   -4.4272   -1.6860    0.0000 C   0  0  0  0  0  0  0  0  0  0  0  0
   -5.1416   -2.0985    0.0000 C   0  0  0  0  0  0  0  0  0  0  0  0
   -5.1416   -2.9234    0.0000 C   0  0  0  0  0  0  0  0  0  0  0  0
   -4.4272   -3.3359    0.0000 N   0  0  0  0  0  0  0  0  0  0  0  0
   -3.7127   -2.9234    0.0000 C   0  0  0  0  0  0  0  0  0  0  0  0
  1  2  1  0      
  2  3  1  0      
  3  4  1  0      
  4  5  1  0      
  5  6  1  0      
  6  7  1  0      
  8  7  1  6      
  8  9  1  0      
  9 10  2  0      
  9 11  1  0      
 11 12  1  0      
 12 13  1  6      
 13 14  1  0      
 14 15  1  0      
 15 16  1  6      
 15 17  1  0      
 17 18  2  0      
 18 19  1  0      
 19 20  2  0      
 20 21  1  0      
 21 22  2  0      
 17 22  1  0      
 20 23  1  0      
 23 24  2  0      
 24 25  1  0      
 24 26  1  0      
 26 27  2  0      
 27 28  1  0      
 23 28  1  0      
 13 29  2  0      
 12 30  1  0      
 30 31  1  0      
 31 32  1  1      
 31 33  1  0      
 11 33  1  0      
  8 34  1  0      
 34 35  1  0      
 34 36  1  0      
 34 37  1  6      
  6 38  2  0      
  3 39  2  0      
  1 40  1  0      
 40 41  2  0      
 41 42  1  0      
 42 43  1  0      
 43 44  1  0      
 40 44  1  0      
 43 45  2  0      
 45 46  1  0      
 46 47  2  0      
 47 48  1  0      
 42 48  2  0      
  1 49  1  0      
 49 50  1  0      
 50 51  2  0      
 51 52  1  0      
 52 53  2  0      
 53 54  1  0      
 49 54  2  0      
M  END

>  <RackCode>
HYCPK72334

>  <Cat. No.>
HY-147025

>  <Product Name>
(S,R,S)-AHPC-C2-amide-benzofuranylmethyl-pyridine

>  <ROW>
B

>  <COLUMN>
21

>  <CAS No.>
2347517-69-3

>  <MWt>
750.91

>  <Target>
HIF/HIF Prolyl-Hydroxylase; PROTACs; TGF-beta/Smad

>  <Saltdate>


>  <Smiles>
O=C(N1[C@@H](C[C@H](C1)O)C(N[C@H](C2=CC=C(C3=C(N=CS3)C)C=C2)C)=O)[C@H](C(C)(C)C)NC(CCC(NC(C4=CN=CC=C4)C5=CC6=CC=CC=C6O5)=O)=O

>  <Solvent>
DMSO Solution

>  <Batch No.>
240222

>  <Quantity>
10mM  * 50uL

>  <Pathway>
Metabolic Enzyme/Protease; PROTAC; Stem Cell/Wnt; TGF-beta/Smad

>  <Synonyms>


>  <Formula>
C41H46N6O6S

>  <Research_Area>
Inflammation/Immunology

>  <Clinical_Information>
No Development Reported

>  <SUPPLIER>
MedChemExpress

$$$$
Untitled Document
  ChemDraw08152413532D

 65 72  0  0  0  0  0  0  0  0999 V2000
   -8.3559   -2.4493    0.0000 C   0  0  0  0  0  0  0  0  0  0  0  0
   -8.4175   -3.2720    0.0000 N   0  0  0  0  0  0  0  0  0  0  0  0
   -7.8128   -3.8331    0.0000 C   0  0  0  0  0  0  0  0  0  0  0  0
   -6.9970   -3.7102    0.0000 C   0  0  0  0  0  0  0  0  0  0  0  0
   -6.5845   -2.9957    0.0000 C   0  0  0  0  0  0  0  0  0  0  0  0
   -6.8859   -2.2277    0.0000 N   0  0  0  0  0  0  0  0  0  0  0  0
   -7.6743   -1.9845    0.0000 C   0  0  0  0  0  0  0  0  0  0  0  0
   -9.1191   -2.1364    0.0000 N   0  0  0  0  0  0  0  0  0  0  0  0
   -9.6520   -2.7658    0.0000 N   0  0  0  0  0  0  0  0  0  0  0  0
   -9.2189   -3.4676    0.0000 C   0  0  0  0  0  0  0  0  0  0  0  0
   -7.9480   -4.6470    0.0000 S   0  0  0  0  0  0  0  0  0  0  0  0
   -7.2157   -5.0270    0.0000 C   0  0  0  0  0  0  0  0  0  0  0  0
   -6.6280   -4.4480    0.0000 C   0  0  0  0  0  0  0  0  0  0  0  0
   -9.5312   -4.2309    0.0000 C   0  0  0  0  0  0  0  0  0  0  0  0
   -5.7595   -2.9957    0.0000 C   0  0  0  0  0  0  0  0  0  0  0  0
   -5.3470   -3.7102    0.0000 C   0  0  0  0  0  0  0  0  0  0  0  0
   -4.5220   -3.7102    0.0000 C   0  0  0  0  0  0  0  0  0  0  0  0
   -4.1095   -2.9957    0.0000 C   0  0  0  0  0  0  0  0  0  0  0  0
   -4.5220   -2.2812    0.0000 C   0  0  0  0  0  0  0  0  0  0  0  0
   -5.3470   -2.2812    0.0000 C   0  0  0  0  0  0  0  0  0  0  0  0
   -3.2845   -2.9957    0.0000 Cl  0  0  0  0  0  0  0  0  0  0  0  0
   -5.8141   -4.5832    0.0000 C   0  0  0  0  0  0  0  0  0  0  0  0
   -7.0927   -5.8428    0.0000 C   0  0  0  0  0  0  0  0  0  0  0  0
   -7.7972   -1.1688    0.0000 C   0  0  0  0  0  0  0  0  0  0  0  0
   -7.1522   -0.6544    0.0000 C   0  0  0  0  0  0  0  0  0  0  0  0
   -6.3843   -0.9558    0.0000 N   0  0  0  0  0  0  0  0  0  0  0  0
   -7.2752    0.1614    0.0000 O   0  0  0  0  0  0  0  0  0  0  0  0
   -5.7393   -0.4414    0.0000 C   0  0  0  0  0  0  0  0  0  0  0  0
   -4.9713   -0.7428    0.0000 C   0  0  0  0  0  0  0  0  0  0  0  0
   -4.3263   -0.2284    0.0000 C   0  0  0  0  0  0  0  0  0  0  0  0
   -4.4492    0.5874    0.0000 C   0  0  0  0  0  0  0  0  0  0  0  0
   -5.2172    0.8888    0.0000 C   0  0  0  0  0  0  0  0  0  0  0  0
   -5.8622    0.3744    0.0000 C   0  0  0  0  0  0  0  0  0  0  0  0
   -3.8042    1.1017    0.0000 O   0  0  0  0  0  0  0  0  0  0  0  0
   -3.0362    0.8003    0.0000 C   0  0  0  0  0  0  0  0  0  0  0  0
   -2.3912    1.3147    0.0000 C   0  0  0  0  0  0  0  0  0  0  0  0
   -1.6233    1.0133    0.0000 O   0  0  0  0  0  0  0  0  0  0  0  0
   -0.9783    1.5277    0.0000 C   0  0  0  0  0  0  0  0  0  0  0  0
   -0.2103    1.2263    0.0000 C   0  0  0  0  0  0  0  0  0  0  0  0
    0.4347    1.7407    0.0000 O   0  0  0  0  0  0  0  0  0  0  0  0
    1.2027    1.4392    0.0000 C   0  0  0  0  0  0  0  0  0  0  0  0
    1.8477    1.9536    0.0000 C   0  0  0  0  0  0  0  0  0  0  0  0
    2.6157    1.6522    0.0000 O   0  0  0  0  0  0  0  0  0  0  0  0
    3.2607    2.1666    0.0000 C   0  0  0  0  0  0  0  0  0  0  0  0
    4.0287    1.8652    0.0000 C   0  0  0  0  0  0  0  0  0  0  0  0
    4.6737    2.3796    0.0000 N   0  0  0  0  0  0  0  0  0  0  0  0
    4.5507    3.1954    0.0000 C   0  0  0  0  0  0  0  0  0  0  0  0
    5.1957    3.7097    0.0000 C   0  0  0  0  0  0  0  0  0  0  0  0
    5.0728    4.5255    0.0000 C   0  0  0  0  0  0  0  0  0  0  0  0
    4.3048    4.8269    0.0000 C   0  0  0  0  0  0  0  0  0  0  0  0
    3.6598    4.3125    0.0000 C   0  0  0  0  0  0  0  0  0  0  0  0
    3.7827    3.4968    0.0000 C   0  0  0  0  0  0  0  0  0  0  0  0
    6.0096    3.5746    0.0000 C   0  0  0  0  0  0  0  0  0  0  0  0
    6.3896    4.3068    0.0000 N   0  0  0  0  0  0  0  0  0  0  0  0
    5.8106    4.8946    0.0000 C   0  0  0  0  0  0  0  0  0  0  0  0
    5.9458    5.7084    0.0000 O   0  0  0  0  0  0  0  0  0  0  0  0
    6.4221    2.8601    0.0000 O   0  0  0  0  0  0  0  0  0  0  0  0
    7.2054    4.4298    0.0000 C   0  0  0  0  0  0  0  0  0  0  0  0
    7.7198    3.7848    0.0000 C   0  0  0  0  0  0  0  0  0  0  0  0
    8.5355    3.9078    0.0000 C   0  0  0  0  0  0  0  0  0  0  0  0
    8.8369    4.6757    0.0000 C   0  0  0  0  0  0  0  0  0  0  0  0
    8.3225    5.3207    0.0000 N   0  0  0  0  0  0  0  0  0  0  0  0
    7.5068    5.1978    0.0000 C   0  0  0  0  0  0  0  0  0  0  0  0
    6.9924    5.8428    0.0000 O   0  0  0  0  0  0  0  0  0  0  0  0
    9.6520    4.7987    0.0000 O   0  0  0  0  0  0  0  0  0  0  0  0
  1  2  1  0      
  2  3  1  0      
  3  4  2  0      
  4  5  1  0      
  5  6  2  0      
  6  7  1  0      
  7  1  1  0      
  1  8  2  0      
  8  9  1  0      
  9 10  2  0      
 10  2  1  0      
  3 11  1  0      
 11 12  1  0      
 12 13  2  0      
 13  4  1  0      
 10 14  1  0      
  5 15  1  0      
 15 16  2  0      
 16 17  1  0      
 17 18  2  0      
 18 19  1  0      
 19 20  2  0      
 20 15  1  0      
 18 21  1  0      
 13 22  1  0      
 12 23  1  0      
  7 24  1  6      
 24 25  1  0      
 25 26  1  0      
 25 27  2  0      
 26 28  1  0      
 28 29  2  0      
 29 30  1  0      
 30 31  2  0      
 31 32  1  0      
 32 33  2  0      
 33 28  1  0      
 31 34  1  0      
 34 35  1  0      
 35 36  1  0      
 36 37  1  0      
 37 38  1  0      
 38 39  1  0      
 39 40  1  0      
 40 41  1  0      
 41 42  1  0      
 42 43  1  0      
 43 44  1  0      
 44 45  1  0      
 45 46  1  0      
 46 47  1  0      
 47 48  2  0      
 48 49  1  0      
 49 50  2  0      
 50 51  1  0      
 51 52  2  0      
 52 47  1  0      
 48 53  1  0      
 53 54  1  0      
 54 55  1  0      
 55 49  1  0      
 55 56  2  0      
 53 57  2  0      
 54 58  1  0      
 58 59  1  0      
 59 60  1  0      
 60 61  1  0      
 61 62  1  0      
 62 63  1  0      
 63 58  1  0      
 63 64  2  0      
 61 65  2  0      
M  END

>  <RackCode>
HYCPK72334

>  <Cat. No.>
HY-16954

>  <Product Name>
ARV-825

>  <ROW>
C

>  <COLUMN>
21

>  <CAS No.>
1818885-28-7

>  <MWt>
923.43

>  <Target>
Epigenetic Reader Domain; PROTACs

>  <Saltdate>
Free Base

>  <Smiles>
CC1=NN=C2N1C(SC(C)=C3C)=C3C(C4=CC=C(Cl)C=C4)=N[C@H]2CC(NC5=CC=C(OCCOCCOCCOCCNC6=C(C(N(C7CCC(NC7=O)=O)C8=O)=O)C8=CC=C6)C=C5)=O

>  <Solvent>
DMSO Solution

>  <Batch No.>
240873

>  <Quantity>
10mM  * 50uL

>  <Pathway>
Epigenetics; PROTAC

>  <Synonyms>


>  <Formula>
C46H47ClN8O9S

>  <Research_Area>
Cancer

>  <Clinical_Information>
No Development Reported

>  <SUPPLIER>
MedChemExpress

$$$$
Untitled Document
  ChemDraw07211710412D

 36 39  0  0  0  0  0  0  0  0999 V2000
   -2.1428   -0.2038    0.0000 O   0  0  0  0  0  0  0  0  0  0  0  0
   -2.8595   -0.6212    0.0000 C   0  0  0  0  0  0  0  0  0  0  0  0
   -2.8595   -1.4462    0.0000 O   0  0  0  0  0  0  0  0  0  0  0  0
   -3.5721   -1.8538    0.0000 C   0  0  0  0  0  0  0  0  0  0  0  0
   -3.5721   -2.6788    0.0000 C   0  0  0  0  0  0  0  0  0  0  0  0
   -4.2867   -3.0962    0.0000 O   0  0  0  0  0  0  0  0  0  0  0  0
   -4.2888   -1.4462    0.0000 C   0  0  0  0  0  0  0  0  0  0  0  0
   -4.2888   -0.6212    0.0000 C   0  0  0  0  0  0  0  0  0  0  0  0
   -3.5721   -0.2038    0.0000 C   0  0  0  0  0  0  0  0  0  0  0  0
   -3.5721    0.6212    0.0000 O   0  0  0  0  0  0  0  0  0  0  0  0
   -5.0034   -0.2038    0.0000 O   0  0  0  0  0  0  0  0  0  0  0  0
   -5.0034   -1.8538    0.0000 O   0  0  0  0  0  0  0  0  0  0  0  0
   -2.1428   -1.0288    0.0000 H   0  0  0  0  0  0  0  0  0  0  0  0
   -2.1428    0.6212    0.0000 C   0  0  0  0  0  0  0  0  0  0  0  0
   -1.4303    1.0288    0.0000 C   0  0  0  0  0  0  0  0  0  0  0  0
   -1.4303    1.8538    0.0000 C   0  0  0  0  0  0  0  0  0  0  0  0
   -0.7136    2.2712    0.0000 C   0  0  0  0  0  0  0  0  0  0  0  0
   -0.0010    1.8538    0.0000 C   0  0  0  0  0  0  0  0  0  0  0  0
   -0.0010    1.0288    0.0000 C   0  0  0  0  0  0  0  0  0  0  0  0
    0.7136    0.6212    0.0000 C   0  0  0  0  0  0  0  0  0  0  0  0
    1.4303    1.0288    0.0000 O   0  0  0  0  0  0  0  0  0  0  0  0
    2.1449    0.6212    0.0000 C   0  0  0  0  0  0  0  0  0  0  0  0
    2.1449   -0.2038    0.0000 O   0  0  0  0  0  0  0  0  0  0  0  0
    2.8595    1.0288    0.0000 C   0  0  0  0  0  0  0  0  0  0  0  0
    2.8595    1.8538    0.0000 C   0  0  0  0  0  0  0  0  0  0  0  0
    3.5741    2.2712    0.0000 C   0  0  0  0  0  0  0  0  0  0  0  0
    4.2888    1.8538    0.0000 C   0  0  0  0  0  0  0  0  0  0  0  0
    4.2888    1.0288    0.0000 C   0  0  0  0  0  0  0  0  0  0  0  0
    3.5741    0.6212    0.0000 C   0  0  0  0  0  0  0  0  0  0  0  0
    5.0034    2.2712    0.0000 O   0  0  0  0  0  0  0  0  0  0  0  0
   -0.7136    3.0962    0.0000 O   0  0  0  0  0  0  0  0  0  0  0  0
   -2.1428    2.2712    0.0000 C   0  0  0  0  0  0  0  0  0  0  0  0
   -2.8595    1.8538    0.0000 C   0  0  0  0  0  0  0  0  0  0  0  0
   -2.8595    1.0288    0.0000 O   0  0  0  0  0  0  0  0  0  0  0  0
   -1.4303    2.6788    0.0000 H   0  0  0  0  0  0  0  0  0  0  0  0
   -1.4303    0.2038    0.0000 H   0  0  0  0  0  0  0  0  0  0  0  0
  1  2  1  0      
 14  1  1  6      
  2  3  1  0      
  2  9  1  0      
  2 13  1  1      
  3  4  1  0      
  4  5  1  6      
  4  7  1  0      
  5  6  1  0      
  8  7  1  0      
  7 12  1  1      
  9  8  1  0      
  8 11  1  6      
  9 10  1  1      
 14 15  1  0      
 14 34  1  0      
 15 16  1  0      
 15 19  1  0      
 15 36  1  6      
 16 17  1  0      
 16 32  1  0      
 16 35  1  6      
 17 18  1  0      
 17 31  1  6      
 19 18  2  0      
 19 20  1  0      
 20 21  1  0      
 21 22  1  0      
 22 23  2  0      
 22 24  1  0      
 24 25  2  0      
 24 29  1  0      
 25 26  1  0      
 26 27  2  0      
 28 27  1  0      
 27 30  1  0      
 29 28  2  0      
 33 32  2  0      
 34 33  1  0      
M  END

>  <RackCode>
HYCPK72334

>  <Cat. No.>
HY-N2518

>  <Product Name>
Agnuside

>  <ROW>
D

>  <COLUMN>
21

>  <CAS No.>
11027-63-7

>  <MWt>
466.44

>  <Target>
ASCT; Caspase; COX; HIF/HIF Prolyl-Hydroxylase; NO Synthase

>  <Saltdate>
Free Base

>  <Smiles>
OC[C@H]([C@@H](O)[C@H](O)[C@H]1O)O[C@@]1([H])O[C@H]2[C@@]3([H])[C@](C=CO2)([H])[C@H](O)C=C3COC(C4=CC=C(O)C=C4)=O

>  <Solvent>
DMSO Solution

>  <Batch No.>
242641

>  <Quantity>
10mM  * 50uL

>  <Pathway>
Apoptosis; Immunology/Inflammation; Membrane Transporter/Ion Channel; Metabolic Enzyme/Protease

>  <Synonyms>
Agnoside

>  <Formula>
C22H26O11

>  <Research_Area>
Inflammation/Immunology; Cardiovascular Disease

>  <Clinical_Information>
No Development Reported

>  <SUPPLIER>
MedChemExpress

$$$$
Untitled Document
  ChemDraw12211712332D

 33 36  0  0  0  0  0  0  0  0999 V2000
   -0.6949    1.3044    0.0000 C   0  0  0  0  0  0  0  0  0  0  0  0
   -0.1302    0.9783    0.0000 C   0  0  0  0  0  0  0  0  0  0  0  0
   -0.1302    0.3277    0.0000 C   0  0  0  0  0  0  0  0  0  0  0  0
   -0.6949    0.0032    0.0000 O   0  0  0  0  0  0  0  0  0  0  0  0
    0.4361    0.0032    0.0000 N   0  0  0  0  0  0  0  0  0  0  0  0
    0.4361   -0.6538    0.0000 C   0  0  0  0  0  0  0  0  0  0  0  0
   -0.1286   -0.9736    0.0000 C   0  0  0  0  0  0  0  0  0  0  0  0
   -0.6917   -0.6538    0.0000 C   0  0  0  0  0  0  0  0  0  0  0  0
   -1.2580   -0.9736    0.0000 C   0  0  0  0  0  0  0  0  0  0  0  0
   -1.2580   -1.6305    0.0000 C   0  0  0  0  0  0  0  0  0  0  0  0
   -0.6917   -1.9550    0.0000 C   0  0  0  0  0  0  0  0  0  0  0  0
   -0.1286   -1.6305    0.0000 C   0  0  0  0  0  0  0  0  0  0  0  0
    0.9991    0.3277    0.0000 C   0  0  0  0  0  0  0  0  0  0  0  0
    0.9991    0.9783    0.0000 N   0  0  0  0  0  0  0  0  0  0  0  0
    0.4361    1.3044    0.0000 C   0  0  0  0  0  0  0  0  0  0  0  0
    0.4361    1.9550    0.0000 O   0  0  0  0  0  0  0  0  0  0  0  0
    1.5654    1.3044    0.0000 C   0  0  0  0  0  0  0  0  0  0  0  0
    2.1301    0.9783    0.0000 C   0  0  0  0  0  0  0  0  0  0  0  0
    2.1301    0.3277    0.0000 C   0  0  0  0  0  0  0  0  0  0  0  0
    2.6948    0.0032    0.0000 C   0  0  0  0  0  0  0  0  0  0  0  0
    3.2595    0.3277    0.0000 C   0  0  0  0  0  0  0  0  0  0  0  0
    3.2595    0.9783    0.0000 C   0  0  0  0  0  0  0  0  0  0  0  0
    2.6948    1.3044    0.0000 C   0  0  0  0  0  0  0  0  0  0  0  0
    1.5654    0.0032    0.0000 O   0  0  0  0  0  0  0  0  0  0  0  0
   -1.5671    0.7960    0.0000 C   0  0  0  0  0  0  0  0  0  0  0  0
   -1.5671    0.1454    0.0000 C   0  0  0  0  0  0  0  0  0  0  0  0
   -1.0024   -0.1854    0.0000 C   0  0  0  0  0  0  0  0  0  0  0  0
   -2.1317   -0.1854    0.0000 C   0  0  0  0  0  0  0  0  0  0  0  0
   -2.6964    0.1454    0.0000 C   0  0  0  0  0  0  0  0  0  0  0  0
   -2.6964    0.7960    0.0000 C   0  0  0  0  0  0  0  0  0  0  0  0
   -2.1317    1.1222    0.0000 C   0  0  0  0  0  0  0  0  0  0  0  0
   -2.1317    1.7728    0.0000 C   0  0  0  0  0  0  0  0  0  0  0  0
   -3.2595   -0.1807    0.0000 O   0  0  0  0  0  0  0  0  0  0  0  0
  1  2  2  0      
  1 25  1  0      
  2  3  1  0      
  2 15  1  0      
  3  4  2  0      
  3  5  1  0      
  5  6  1  0      
  5 13  1  0      
  6  7  1  0      
  7  8  2  0      
  7 12  1  0      
  8  9  1  0      
  9 10  2  0      
 11 10  1  0      
 12 11  2  0      
 14 13  1  0      
 13 24  2  0      
 15 14  1  0      
 14 17  1  0      
 15 16  2  0      
 17 18  1  0      
 18 19  2  0      
 18 23  1  0      
 19 20  1  0      
 20 21  2  0      
 22 21  1  0      
 23 22  2  0      
 25 26  2  0      
 25 31  1  0      
 26 27  1  0      
 26 28  1  0      
 28 29  2  0      
 30 29  1  0      
 29 33  1  0      
 31 30  2  0      
 31 32  1  0      
M  END

>  <RackCode>
HYCPK72334

>  <Cat. No.>
HY-110263

>  <Product Name>
EML 425

>  <ROW>
E

>  <COLUMN>
21

>  <CAS No.>
1675821-32-5

>  <MWt>
440.49

>  <Target>
Epigenetic Reader Domain; Histone Acetyltransferase

>  <Saltdate>


>  <Smiles>
O=C(N(C(N(CC1=CC=CC=C1)C/2=O)=O)CC3=CC=CC=C3)C2=C/C4=C(C=C(O)C=C4C)C

>  <Solvent>
DMSO Solution

>  <Batch No.>
58132

>  <Quantity>
10mM  * 50uL

>  <Pathway>
Epigenetics

>  <Synonyms>


>  <Formula>
C27H24N2O4

>  <Research_Area>
Metabolic Disease; Neurological Disease; Cardiovascular Disease

>  <Clinical_Information>
No Development Reported

>  <SUPPLIER>
MedChemExpress

$$$$
Untitled Document
  ChemDraw07222213212D

 25 28  0  0  0  0  0  0  0  0999 V2000
   -2.5070    0.7145    0.0000 O   0  0  0  0  0  0  0  0  0  0  0  0
   -2.0945    0.0000    0.0000 C   0  0  0  0  0  0  0  0  0  0  0  0
   -1.2695    0.0000    0.0000 N   0  0  0  0  0  0  0  0  0  0  0  0
   -0.8570    0.7145    0.0000 C   0  0  0  0  0  0  0  0  0  0  0  0
   -1.2695    1.4289    0.0000 C   0  0  0  0  0  0  0  0  0  0  0  0
   -0.8570    2.1434    0.0000 C   0  0  0  0  0  0  0  0  0  0  0  0
   -0.0320    2.1434    0.0000 C   0  0  0  0  0  0  0  0  0  0  0  0
    0.3805    1.4289    0.0000 C   0  0  0  0  0  0  0  0  0  0  0  0
   -0.0320    0.7145    0.0000 C   0  0  0  0  0  0  0  0  0  0  0  0
    1.2055    1.4289    0.0000 C   0  0  0  0  0  0  0  0  0  0  0  0
    1.6904    0.7615    0.0000 N   0  0  0  0  0  0  0  0  0  0  0  0
    2.4750    1.0164    0.0000 C   0  0  0  0  0  0  0  0  0  0  0  0
    3.2596    0.7615    0.0000 S   0  0  0  0  0  0  0  0  0  0  0  0
    3.7445    1.4289    0.0000 C   0  0  0  0  0  0  0  0  0  0  0  0
    3.2596    2.0964    0.0000 C   0  0  0  0  0  0  0  0  0  0  0  0
    2.4750    1.8414    0.0000 N   0  0  0  0  0  0  0  0  0  0  0  0
    1.6904    2.0964    0.0000 C   0  0  0  0  0  0  0  0  0  0  0  0
   -2.5070   -0.7145    0.0000 C   0  0  0  0  0  0  0  0  0  0  0  0
   -3.3320   -0.7145    0.0000 C   0  0  0  0  0  0  0  0  0  0  0  0
   -3.7445   -1.4289    0.0000 C   0  0  0  0  0  0  0  0  0  0  0  0
   -3.3320   -2.1434    0.0000 C   0  0  0  0  0  0  0  0  0  0  0  0
   -2.5070   -2.1434    0.0000 C   0  0  0  0  0  0  0  0  0  0  0  0
   -2.0945   -1.4289    0.0000 C   0  0  0  0  0  0  0  0  0  0  0  0
   -1.2695   -1.4289    0.0000 O   0  0  0  0  0  0  0  0  0  0  0  0
   -0.8570   -0.7145    0.0000 C   0  0  0  0  0  0  0  0  0  0  0  0
  1  2  2  0      
  2  3  1  0      
  3  4  1  0      
  4  5  2  0      
  5  6  1  0      
  6  7  2  0      
  7  8  1  0      
  8  9  2  0      
  4  9  1  0      
  8 10  1  0      
 10 11  1  0      
 11 12  2  0      
 12 13  1  0      
 13 14  1  0      
 14 15  2  0      
 15 16  1  0      
 12 16  1  0      
 16 17  1  0      
 10 17  2  0      
  2 18  1  0      
 18 19  1  0      
 19 20  2  0      
 20 21  1  0      
 21 22  2  0      
 22 23  1  0      
 18 23  2  0      
 23 24  1  0      
 24 25  1  0      
M  END

>  <RackCode>
HYCPK72334

>  <Cat. No.>
HY-147234

>  <Product Name>
Sirtuin modulator 2

>  <ROW>
F

>  <COLUMN>
21

>  <CAS No.>
667910-69-2

>  <MWt>
349.41

>  <Target>
Sirtuin

>  <Saltdate>


>  <Smiles>
O=C(C1=C(OC)C=CC=C1)NC2=CC=CC(C3=CN4C=CSC4=N3)=C2

>  <Solvent>
DMSO Solution

>  <Batch No.>
190139

>  <Quantity>
10mM  * 50uL

>  <Pathway>
Cell Cycle/DNA Damage; Epigenetics

>  <Synonyms>


>  <Formula>
C19H15N3O2S

>  <Research_Area>
Cancer; Metabolic Disease; Inflammation/Immunology; Neurological Disease; Cardiovascular Disease

>  <Clinical_Information>
No Development Reported

>  <SUPPLIER>
MedChemExpress

$$$$
Untitled Document
  ChemDraw10272314212D

 27 29  0  0  0  0  0  0  0  0999 V2000
   -2.0348   -1.3377    0.0000 C   0  0  0  0  0  0  0  0  0  0  0  0
   -2.7493   -0.9252    0.0000 C   0  0  0  0  0  0  0  0  0  0  0  0
   -3.4638   -1.3377    0.0000 C   0  0  0  0  0  0  0  0  0  0  0  0
   -3.4638   -2.1627    0.0000 C   0  0  0  0  0  0  0  0  0  0  0  0
   -2.7493   -2.5752    0.0000 C   0  0  0  0  0  0  0  0  0  0  0  0
   -2.0348   -2.1627    0.0000 C   0  0  0  0  0  0  0  0  0  0  0  0
   -4.1757   -2.5738    0.0000 C   0  0  0  0  0  0  0  0  0  0  0  0
   -1.3228   -0.9267    0.0000 C   0  0  0  0  0  0  0  0  0  0  0  0
   -0.5259   -1.1402    0.0000 C   0  0  0  0  0  0  0  0  0  0  0  0
   -0.0766   -0.4483    0.0000 N   0  0  0  0  0  0  0  0  0  0  0  0
   -0.5958    0.1929    0.0000 C   0  0  0  0  0  0  0  0  0  0  0  0
   -1.3660   -0.1028    0.0000 O   0  0  0  0  0  0  0  0  0  0  0  0
   -0.3830    0.9870    0.0000 C   0  0  0  0  0  0  0  0  0  0  0  0
    0.4111    1.1998    0.0000 C   0  0  0  0  0  0  0  0  0  0  0  0
    0.6239    1.9939    0.0000 N   0  3  0  0  0  0  0  0  0  0  0  0
    0.0426    2.5752    0.0000 C   0  0  0  0  0  0  0  0  0  0  0  0
   -0.7516    2.3624    0.0000 C   0  0  0  0  0  0  0  0  0  0  0  0
   -0.9644    1.5683    0.0000 C   0  0  0  0  0  0  0  0  0  0  0  0
    1.4180    2.2067    0.0000 C   0  0  0  0  0  0  0  0  0  0  0  0
    2.0014    1.6233    0.0000 C   0  0  0  0  0  0  0  0  0  0  0  0
    1.7878    0.8264    0.0000 C   0  0  0  0  0  0  0  0  0  0  0  0
    2.3712    0.2431    0.0000 C   0  0  0  0  0  0  0  0  0  0  0  0
    3.1681    0.4566    0.0000 C   0  0  0  0  0  0  0  0  0  0  0  0
    3.3816    1.2535    0.0000 C   0  0  0  0  0  0  0  0  0  0  0  0
    2.7983    1.8368    0.0000 C   0  0  0  0  0  0  0  0  0  0  0  0
    4.1757    1.4663    0.0000 C   0  0  0  0  0  0  0  0  0  0  0  0
    1.2389   -1.4981    0.0000 Br  0  5  0  0  0  0  0  0  0  0  0  0
  1  2  2  0      
  2  3  1  0      
  3  4  2  0      
  4  5  1  0      
  5  6  2  0      
  6  1  1  0      
  4  7  1  0      
  1  8  1  0      
  8  9  2  0      
  9 10  1  0      
 10 11  2  0      
 11 12  1  0      
 12  8  1  0      
 11 13  1  0      
 13 14  2  0      
 14 15  1  0      
 15 16  2  0      
 16 17  1  0      
 17 18  2  0      
 18 13  1  0      
 15 19  1  0      
 19 20  1  0      
 20 21  2  0      
 21 22  1  0      
 22 23  2  0      
 23 24  1  0      
 24 25  2  0      
 25 20  1  0      
 24 26  1  0      
M  CHG  2  15   1  27  -1
M  END

>  <RackCode>
HYCPK72334

>  <Cat. No.>
HY-155363

>  <Product Name>
AMPK activator 13

>  <ROW>
G

>  <COLUMN>
21

>  <CAS No.>


>  <MWt>
421.33

>  <Target>
AMPK

>  <Saltdate>
Bromide

>  <Smiles>
CC1=CC=C(C2=CN=C(C3=C[N+](CC4=CC=CC(C)=C4)=CC=C3)O2)C=C1.[Br-]

>  <Solvent>
DMSO Solution

>  <Batch No.>
378492

>  <Quantity>
10mM  * 50uL

>  <Pathway>
Epigenetics; PI3K/Akt/mTOR

>  <Synonyms>


>  <Formula>
C23H21BrN2O

>  <Research_Area>
Metabolic Disease

>  <Clinical_Information>
No Development Reported

>  <SUPPLIER>
MedChemExpress

$$$$
Untitled Document
  ChemDraw09281613262D

 26 28  0  0  0  0  0  0  0  0999 V2000
   -1.4045    0.7260    0.0000 C   0  0  0  0  0  0  0  0  0  0  0  0
   -2.1190    1.1385    0.0000 C   0  0  0  0  0  0  0  0  0  0  0  0
   -2.1190    1.9635    0.0000 C   0  0  0  0  0  0  0  0  0  0  0  0
   -1.4045    2.3760    0.0000 C   0  0  0  0  0  0  0  0  0  0  0  0
   -0.6900    1.9635    0.0000 C   0  0  0  0  0  0  0  0  0  0  0  0
   -0.6900    1.1385    0.0000 C   0  0  0  0  0  0  0  0  0  0  0  0
   -1.4045   -0.0990    0.0000 S   0  0  0  0  0  0  0  0  0  0  0  0
   -2.2295   -0.0990    0.0000 O   0  0  0  0  0  0  0  0  0  0  0  0
   -0.5795   -0.0990    0.0000 O   0  0  0  0  0  0  0  0  0  0  0  0
   -1.4045   -0.9240    0.0000 N   0  0  0  0  0  0  0  0  0  0  0  0
   -2.8335    0.7260    0.0000 C   0  0  0  0  0  0  0  0  0  0  0  0
    2.0085   -1.7490    0.0000 C   0  0  0  0  0  0  0  0  0  0  0  0
    1.5235   -1.0815    0.0000 N   0  0  0  0  0  0  0  0  0  0  0  0
    0.7389   -1.3365    0.0000 C   0  0  0  0  0  0  0  0  0  0  0  0
    0.7389   -2.1615    0.0000 C   0  0  0  0  0  0  0  0  0  0  0  0
    1.5235   -2.4164    0.0000 N   0  0  0  0  0  0  0  0  0  0  0  0
    0.0244   -0.9240    0.0000 C   0  0  0  0  0  0  0  0  0  0  0  0
   -0.6900   -1.3365    0.0000 C   0  0  0  0  0  0  0  0  0  0  0  0
   -0.6900   -2.1615    0.0000 C   0  0  0  0  0  0  0  0  0  0  0  0
    0.0244   -2.5740    0.0000 C   0  0  0  0  0  0  0  0  0  0  0  0
    2.8335   -1.7490    0.0000 O   0  0  0  0  0  0  0  0  0  0  0  0
    1.7785   -0.2969    0.0000 C   0  0  0  0  0  0  0  0  0  0  0  0
    1.7785   -3.2010    0.0000 C   0  0  0  0  0  0  0  0  0  0  0  0
   -1.4045   -2.5740    0.0000 O   0  0  0  0  0  0  0  0  0  0  0  0
   -2.1190   -2.1615    0.0000 C   0  0  0  0  0  0  0  0  0  0  0  0
   -1.4045    3.2010    0.0000 Br  0  0  0  0  0  0  0  0  0  0  0  0
  1  2  1  0      
  2  3  2  0      
  3  4  1  0      
  4  5  2  0      
  5  6  1  0      
  1  6  2  0      
  7  8  2  0      
  7  9  2  0      
  7 10  1  0      
  1  7  1  0      
  2 11  1  0      
 12 13  1  0      
 13 14  1  0      
 14 15  1  0      
 15 16  1  0      
 12 16  1  0      
 17 18  1  0      
 18 19  2  0      
 19 20  1  0      
 15 20  2  0      
 14 17  2  0      
 12 21  2  0      
 13 22  1  0      
 16 23  1  0      
 24 25  1  0      
 19 24  1  0      
 10 18  1  0      
  4 26  1  0      
M  END

>  <RackCode>
HYCPK72334

>  <Cat. No.>
HY-12518

>  <Product Name>
OF-1

>  <ROW>
H

>  <COLUMN>
21

>  <CAS No.>
919973-83-4

>  <MWt>
440.31

>  <Target>
Epigenetic Reader Domain

>  <Saltdate>
Free Base

>  <Smiles>
O=S(C1=CC=C(Br)C=C1C)(NC2=C(OC)C=C(N3C)C(N(C)C3=O)=C2)=O

>  <Solvent>
DMSO Solution

>  <Batch No.>
14717

>  <Quantity>
10mM  * 50uL

>  <Pathway>
Epigenetics

>  <Synonyms>


>  <Formula>
C17H18BrN3O4S

>  <Research_Area>
Cancer

>  <Clinical_Information>
No Development Reported

>  <SUPPLIER>
MedChemExpress

$$$$
Untitled Document
  ChemDraw09111712392D

 30 34  0  0  0  0  0  0  0  0999 V2000
   -0.4637    0.8250    0.0000 N   0  0  0  0  0  0  0  0  0  0  0  0
    0.2507    0.4125    0.0000 C   0  0  0  0  0  0  0  0  0  0  0  0
    0.2507   -0.4125    0.0000 C   0  0  0  0  0  0  0  0  0  0  0  0
   -0.4637   -0.8250    0.0000 N   0  0  0  0  0  0  0  0  0  0  0  0
   -1.1782   -0.4125    0.0000 C   0  0  0  0  0  0  0  0  0  0  0  0
   -1.8927   -0.8250    0.0000 C   0  0  0  0  0  0  0  0  0  0  0  0
   -2.6071   -0.4125    0.0000 C   0  0  0  0  0  0  0  0  0  0  0  0
   -2.6071    0.4125    0.0000 C   0  0  0  0  0  0  0  0  0  0  0  0
   -1.8927    0.8250    0.0000 C   0  0  0  0  0  0  0  0  0  0  0  0
   -1.1782    0.4125    0.0000 C   0  0  0  0  0  0  0  0  0  0  0  0
    1.0354    0.6674    0.0000 N   0  0  0  0  0  0  0  0  0  0  0  0
    1.0354   -0.6674    0.0000 C   0  0  0  0  0  0  0  0  0  0  0  0
    1.5203   -0.0000    0.0000 C   0  0  0  0  0  0  0  0  0  0  0  0
    2.3453   -0.0000    0.0000 N   0  0  0  0  0  0  0  0  0  0  0  0
    1.2903   -1.4521    0.0000 S   0  0  0  0  0  0  0  0  0  0  0  0
    0.5057   -1.7070    0.0000 O   0  0  0  0  0  0  0  0  0  0  0  0
    2.0749   -1.1971    0.0000 O   0  0  0  0  0  0  0  0  0  0  0  0
    1.5452   -2.2367    0.0000 C   0  0  0  0  0  0  0  0  0  0  0  0
    2.3522   -2.4082    0.0000 C   0  0  0  0  0  0  0  0  0  0  0  0
    2.6071   -3.1928    0.0000 C   0  0  0  0  0  0  0  0  0  0  0  0
    2.0551   -3.8059    0.0000 C   0  0  0  0  0  0  0  0  0  0  0  0
    1.2481   -3.6344    0.0000 C   0  0  0  0  0  0  0  0  0  0  0  0
    0.9932   -2.8498    0.0000 C   0  0  0  0  0  0  0  0  0  0  0  0
    1.2903    1.4521    0.0000 C   0  0  0  0  0  0  0  0  0  0  0  0
    0.7383    2.0652    0.0000 C   0  0  0  0  0  0  0  0  0  0  0  0
    0.9932    2.8498    0.0000 C   0  0  0  0  0  0  0  0  0  0  0  0
    1.8002    3.0213    0.0000 C   0  0  0  0  0  0  0  0  0  0  0  0
    2.3522    2.4082    0.0000 C   0  0  0  0  0  0  0  0  0  0  0  0
    2.0973    1.6236    0.0000 C   0  0  0  0  0  0  0  0  0  0  0  0
    2.0551    3.8059    0.0000 F   0  0  0  0  0  0  0  0  0  0  0  0
  1  2  2  0      
  2  3  1  0      
  3  4  2  0      
  4  5  1  0      
  5  6  2  0      
  6  7  1  0      
  7  8  2  0      
  8  9  1  0      
  9 10  2  0      
  1 10  1  0      
  5 10  1  0      
 12 13  2  0      
 11 13  1  0      
  2 11  1  0      
  3 12  1  0      
 13 14  1  0      
 15 16  2  0      
 15 17  2  0      
 18 19  1  0      
 19 20  2  0      
 20 21  1  0      
 21 22  2  0      
 22 23  1  0      
 18 23  2  0      
 15 18  1  0      
 12 15  1  0      
 24 25  1  0      
 25 26  2  0      
 26 27  1  0      
 27 28  2  0      
 28 29  1  0      
 24 29  2  0      
 27 30  1  0      
 11 24  1  0      
M  END

>  <RackCode>
HYCPK72334

>  <Cat. No.>
HY-104073

>  <Product Name>
CAY10602

>  <ROW>
I

>  <COLUMN>
21

>  <CAS No.>
374922-43-7

>  <MWt>
418.44

>  <Target>
Sirtuin

>  <Saltdate>
Free Base

>  <Smiles>
NC1=C(S(=O)(C2=CC=CC=C2)=O)C3=NC4=CC=CC=C4N=C3N1C5=CC=C(F)C=C5

>  <Solvent>
DMSO Solution

>  <Batch No.>
79428

>  <Quantity>
10mM  * 50uL

>  <Pathway>
Cell Cycle/DNA Damage; Epigenetics

>  <Synonyms>


>  <Formula>
C22H15FN4O2S

>  <Research_Area>
Metabolic Disease; Inflammation/Immunology

>  <Clinical_Information>
No Development Reported

>  <SUPPLIER>
MedChemExpress

$$$$
Untitled Document
  ChemDraw02111913092D

 30 35  0  0  0  0  0  0  0  0999 V2000
   -2.7166   -2.3683    0.0000 O   0  0  0  0  0  0  0  0  0  0  0  0
   -3.1291   -1.6538    0.0000 N   0  0  0  0  0  0  0  0  0  0  0  0
   -2.5770   -1.0407    0.0000 C   0  0  0  0  0  0  0  0  0  0  0  0
   -1.8234   -1.3762    0.0000 C   0  0  0  0  0  0  0  0  0  0  0  0
   -1.9096   -2.1967    0.0000 C   0  0  0  0  0  0  0  0  0  0  0  0
   -1.2965   -2.7488    0.0000 C   0  0  0  0  0  0  0  0  0  0  0  0
   -2.7486   -0.2337    0.0000 C   0  0  0  0  0  0  0  0  0  0  0  0
    1.5896   -0.5512    0.0000 C   0  0  0  0  0  0  0  0  0  0  0  0
    1.1047    0.1162    0.0000 N   0  0  0  0  0  0  0  0  0  0  0  0
    0.3201   -0.1387    0.0000 C   0  0  0  0  0  0  0  0  0  0  0  0
    0.3201   -0.9637    0.0000 C   0  0  0  0  0  0  0  0  0  0  0  0
    1.1047   -1.2187    0.0000 N   0  0  0  0  0  0  0  0  0  0  0  0
   -0.3944   -1.3762    0.0000 C   0  0  0  0  0  0  0  0  0  0  0  0
   -1.1089   -0.9637    0.0000 C   0  0  0  0  0  0  0  0  0  0  0  0
   -1.1089   -0.1387    0.0000 C   0  0  0  0  0  0  0  0  0  0  0  0
   -0.3944    0.2738    0.0000 C   0  0  0  0  0  0  0  0  0  0  0  0
    1.0345    2.7488    0.0000 N   0  0  0  0  0  0  0  0  0  0  0  0
    1.7490    2.3363    0.0000 C   0  0  0  0  0  0  0  0  0  0  0  0
    1.7490    1.5113    0.0000 C   0  0  0  0  0  0  0  0  0  0  0  0
    1.0345    1.0988    0.0000 C   0  0  0  0  0  0  0  0  0  0  0  0
    0.3201    1.5113    0.0000 C   0  0  0  0  0  0  0  0  0  0  0  0
   -0.3944    1.0988    0.0000 C   0  0  0  0  0  0  0  0  0  0  0  0
   -1.1089    1.5113    0.0000 C   0  0  0  0  0  0  0  0  0  0  0  0
   -1.1089    2.3363    0.0000 C   0  0  0  0  0  0  0  0  0  0  0  0
   -0.3944    2.7488    0.0000 C   0  0  0  0  0  0  0  0  0  0  0  0
    0.3201    2.3363    0.0000 C   0  0  0  0  0  0  0  0  0  0  0  0
   -1.8234    1.0988    0.0000 C   0  0  0  0  0  0  0  0  0  0  0  0
    2.4146   -0.5512    0.0000 C   0  0  0  0  0  0  0  0  0  0  0  0
    3.1291   -0.1387    0.0000 C   0  0  0  0  0  0  0  0  0  0  0  0
    3.1291   -0.9637    0.0000 C   0  0  0  0  0  0  0  0  0  0  0  0
  1  2  1  0      
  2  3  2  0      
  3  4  1  0      
  4  5  2  0      
  1  5  1  0      
  5  6  1  0      
  3  7  1  0      
  8  9  1  0      
  9 10  1  0      
 10 11  1  0      
 11 12  1  0      
  8 12  2  0      
 13 14  1  0      
 14 15  2  0      
 15 16  1  0      
 10 16  2  0      
 11 13  2  0      
 17 18  2  0      
 18 19  1  0      
 19 20  2  0      
 20 21  1  0      
 21 22  2  0      
 22 23  1  0      
 23 24  2  0      
 24 25  1  0      
 25 26  2  0      
 17 26  1  0      
 21 26  1  0      
 23 27  1  0      
 16 22  1  0      
 28 29  1  0      
 29 30  1  0      
 28 30  1  0      
  8 28  1  0      
  4 14  1  0      
M  END

>  <RackCode>
HYCPK72334

>  <Cat. No.>
HY-114416

>  <Product Name>
GS-626510

>  <ROW>
J

>  <COLUMN>
21

>  <CAS No.>
1637770-13-8

>  <MWt>
394.47

>  <Target>
Epigenetic Reader Domain

>  <Saltdate>
Free Base

>  <Smiles>
CC1=C(C2=CC(C3=C4C=CC=NC4=CC=C3C)=C5NC(C6CC6)=NC5=C2)C(C)=NO1

>  <Solvent>
DMSO Solution

>  <Batch No.>
100633

>  <Quantity>
10mM  * 50uL

>  <Pathway>
Epigenetics

>  <Synonyms>


>  <Formula>
C25H22N4O

>  <Research_Area>
Cancer

>  <Clinical_Information>
No Development Reported

>  <SUPPLIER>
MedChemExpress

$$$$
Untitled Document
  ChemDraw12061613072D

 38 40  0  0  0  0  0  0  0  0999 V2000
   -2.7458    0.7415    0.0000 C   0  0  0  0  0  0  0  0  0  0  0  0
   -2.0313    1.1540    0.0000 C   0  0  0  0  0  0  0  0  0  0  0  0
   -1.3168    0.7415    0.0000 C   0  0  0  0  0  0  0  0  0  0  0  0
   -3.4603    1.1540    0.0000 C   0  0  0  0  0  0  0  0  0  0  0  0
   -0.6024    1.1540    0.0000 N   0  0  0  0  0  0  0  0  0  0  0  0
   -1.3168   -0.0835    0.0000 O   0  0  0  0  0  0  0  0  0  0  0  0
    0.1121    0.7415    0.0000 C   0  0  0  0  0  0  0  0  0  0  0  0
    0.8266    1.1540    0.0000 C   0  0  0  0  0  0  0  0  0  0  0  0
    0.1121   -0.0835    0.0000 C   0  0  0  0  0  0  0  0  0  0  0  0
    0.8266   -0.4960    0.0000 O   0  0  0  0  0  0  0  0  0  0  0  0
    1.5410    0.7415    0.0000 N   0  0  0  0  0  0  0  0  0  0  0  0
    0.8266    1.9790    0.0000 O   0  0  0  0  0  0  0  0  0  0  0  0
    2.2555    1.1540    0.0000 C   0  0  0  0  0  0  0  0  0  0  0  0
    2.9700    0.7415    0.0000 C   0  0  0  0  0  0  0  0  0  0  0  0
    3.6845    1.1540    0.0000 N   0  0  0  0  0  0  0  0  0  0  0  0
    2.9700   -0.0835    0.0000 O   0  0  0  0  0  0  0  0  0  0  0  0
    4.3989    0.7415    0.0000 C   0  0  0  0  0  0  0  0  0  0  0  0
    5.1134    1.1540    0.0000 C   0  0  0  0  0  0  0  0  0  0  0  0
    5.8279    0.7415    0.0000 C   0  0  0  0  0  0  0  0  0  0  0  0
    5.8279   -0.0835    0.0000 C   0  0  0  0  0  0  0  0  0  0  0  0
    5.1134   -0.4960    0.0000 C   0  0  0  0  0  0  0  0  0  0  0  0
    4.3989   -0.0835    0.0000 C   0  0  0  0  0  0  0  0  0  0  0  0
    3.6845   -0.4960    0.0000 C   0  0  0  0  0  0  0  0  0  0  0  0
    3.6845   -1.3210    0.0000 C   0  0  0  0  0  0  0  0  0  0  0  0
    4.3989   -1.7335    0.0000 C   0  0  0  0  0  0  0  0  0  0  0  0
    5.1134   -1.3210    0.0000 C   0  0  0  0  0  0  0  0  0  0  0  0
   -3.5465    1.9745    0.0000 C   0  0  0  0  0  0  0  0  0  0  0  0
   -4.3535    2.1460    0.0000 N   0  0  0  0  0  0  0  0  0  0  0  0
   -4.7660    1.4315    0.0000 C   0  0  0  0  0  0  0  0  0  0  0  0
   -4.2139    0.8184    0.0000 C   0  0  0  0  0  0  0  0  0  0  0  0
   -5.5729    1.2600    0.0000 C   0  0  0  0  0  0  0  0  0  0  0  0
   -5.8279    0.4754    0.0000 C   0  0  0  0  0  0  0  0  0  0  0  0
   -5.2758   -0.1377    0.0000 C   0  0  0  0  0  0  0  0  0  0  0  0
   -4.4689    0.0338    0.0000 C   0  0  0  0  0  0  0  0  0  0  0  0
    0.8266   -1.3210    0.0000 P   0  0  0  0  0  0  0  0  0  0  0  0
    0.8266   -2.1460    0.0000 O   0  0  0  0  0  0  0  0  0  0  0  0
    0.0016   -1.3210    0.0000 O   0  0  0  0  0  0  0  0  0  0  0  0
    1.6516   -1.3210    0.0000 O   0  0  0  0  0  0  0  0  0  0  0  0
  1  2  1  0      
  2  3  1  0      
  1  4  1  0      
  3  5  1  0      
  3  6  2  0      
  5  7  1  0      
  7  8  1  0      
  7  9  1  6      
  9 10  1  0      
  8 11  1  0      
  8 12  2  0      
 11 13  1  0      
 13 14  1  0      
 14 15  1  0      
 14 16  2  0      
 15 17  1  0      
 17 18  1  0      
 18 19  1  0      
 19 20  1  0      
 20 21  1  0      
 21 22  2  0      
 22 23  1  0      
 23 24  2  0      
 24 25  1  0      
 25 26  2  0      
 26 21  1  0      
  4 27  2  0      
 27 28  1  0      
 28 29  1  0      
 29 30  2  0      
 30  4  1  0      
 29 31  1  0      
 31 32  2  0      
 32 33  1  0      
 33 34  2  0      
 34 30  1  0      
 10 35  1  0      
 35 36  1  0      
 35 37  2  0      
 35 38  1  0      
M  END

>  <RackCode>
HYCPK72334

>  <Cat. No.>
HY-100862

>  <Product Name>
BRCA1-IN-2

>  <ROW>
K

>  <COLUMN>
21

>  <CAS No.>
1622262-55-8

>  <MWt>
544.54

>  <Target>
PARP

>  <Saltdate>
Free Acid

>  <Smiles>
O=C(N[C@@H](COP(O)(O)=O)C(NCC(NCCCCC1=CC=CC=C1)=O)=O)CCC2=CNC3=C2C=CC=C3

>  <Solvent>
DMSO Solution

>  <Batch No.>
83742

>  <Quantity>
10mM  * 50uL

>  <Pathway>
Cell Cycle/DNA Damage; Epigenetics

>  <Synonyms>


>  <Formula>
C26H33N4O7P

>  <Research_Area>
Cancer

>  <Clinical_Information>
No Development Reported

>  <SUPPLIER>
MedChemExpress

$$$$
Untitled Document
  ChemDraw07041813462D

 55 60  0  0  0  0  0  0  0  0999 V2000
   -7.1330   -1.5451    0.0000 C   0  0  0  0  0  0  0  0  0  0  0  0
   -7.1330   -2.3701    0.0000 C   0  0  0  0  0  0  0  0  0  0  0  0
   -6.4185   -2.7826    0.0000 C   0  0  0  0  0  0  0  0  0  0  0  0
   -5.7040   -2.3701    0.0000 C   0  0  0  0  0  0  0  0  0  0  0  0
   -5.7040   -1.5451    0.0000 C   0  0  0  0  0  0  0  0  0  0  0  0
   -6.4185   -1.1326    0.0000 C   0  0  0  0  0  0  0  0  0  0  0  0
   -7.8450   -2.7811    0.0000 Cl  0  0  0  0  0  0  0  0  0  0  0  0
   -4.9920   -1.1340    0.0000 C   0  0  0  0  0  0  0  0  0  0  0  0
   -4.2776   -1.5465    0.0000 C   0  0  0  0  0  0  0  0  0  0  0  0
   -3.5631   -1.1340    0.0000 C   0  0  0  0  0  0  0  0  0  0  0  0
   -3.5631   -0.3090    0.0000 C   0  0  0  0  0  0  0  0  0  0  0  0
   -4.2776    0.1035    0.0000 C   0  0  0  0  0  0  0  0  0  0  0  0
   -4.9920   -0.3090    0.0000 C   0  0  0  0  0  0  0  0  0  0  0  0
   -2.8511   -1.5451    0.0000 C   0  0  0  0  0  0  0  0  0  0  0  0
   -2.1391   -1.1340    0.0000 N   0  0  0  0  0  0  0  0  0  0  0  0
   -1.4271   -1.5451    0.0000 C   0  0  0  0  0  0  0  0  0  0  0  0
   -2.1391   -0.3119    0.0000 C   0  0  0  0  0  0  0  0  0  0  0  0
   -2.8511    0.0992    0.0000 O   0  0  0  0  0  0  0  0  0  0  0  0
   -1.4271    0.0992    0.0000 C   0  0  0  0  0  0  0  0  0  0  0  0
   -1.4271    0.9213    0.0000 C   0  0  0  0  0  0  0  0  0  0  0  0
   -0.7151    1.3324    0.0000 C   0  0  0  0  0  0  0  0  0  0  0  0
   -1.6406    1.7182    0.0000 C   0  0  0  0  0  0  0  0  0  0  0  0
   -2.1416    0.5088    0.0000 C   0  0  0  0  0  0  0  0  0  0  0  0
   -0.0007    0.9199    0.0000 C   0  0  0  0  0  0  0  0  0  0  0  0
    0.7138    1.3324    0.0000 C   0  0  0  0  0  0  0  0  0  0  0  0
    0.7138    2.1574    0.0000 C   0  0  0  0  0  0  0  0  0  0  0  0
   -0.0007    2.5699    0.0000 C   0  0  0  0  0  0  0  0  0  0  0  0
   -0.7151    2.1574    0.0000 C   0  0  0  0  0  0  0  0  0  0  0  0
   -1.4271    2.5685    0.0000 O   0  0  0  0  0  0  0  0  0  0  0  0
   -0.0007    0.0978    0.0000 C   0  0  0  0  0  0  0  0  0  0  0  0
   -0.0007    3.3920    0.0000 C   0  0  0  0  0  0  0  0  0  0  0  0
    1.4258    2.5685    0.0000 C   0  0  0  0  0  0  0  0  0  0  0  0
    1.4258    0.9213    0.0000 O   0  0  0  0  0  0  0  0  0  0  0  0
   -0.7151   -1.1340    0.0000 C   0  0  0  0  0  0  0  0  0  0  0  0
   -0.0031   -1.5451    0.0000 C   0  0  0  0  0  0  0  0  0  0  0  0
    0.7089   -1.1340    0.0000 C   0  0  0  0  0  0  0  0  0  0  0  0
    1.4208   -1.5451    0.0000 S   0  0  0  0  0  0  0  0  0  0  0  0
    2.1328   -1.1340    0.0000 C   0  0  0  0  0  0  0  0  0  0  0  0
    2.9487   -1.5279    0.0000 C   0  0  0  0  0  0  0  0  0  0  0  0
    3.0952   -2.3398    0.0000 C   0  0  0  0  0  0  0  0  0  0  0  0
    3.9126   -2.4513    0.0000 C   0  0  0  0  0  0  0  0  0  0  0  0
    4.2713   -1.7084    0.0000 C   0  0  0  0  0  0  0  0  0  0  0  0
    3.6756   -1.1377    0.0000 O   0  0  0  0  0  0  0  0  0  0  0  0
    5.0804   -1.5624    0.0000 N   0  0  0  0  0  0  0  0  0  0  0  0
    5.6761   -2.1331    0.0000 C   0  0  0  0  0  0  0  0  0  0  0  0
    6.4030   -1.7428    0.0000 C   0  0  0  0  0  0  0  0  0  0  0  0
    6.2565   -0.9309    0.0000 N   0  0  0  0  0  0  0  0  0  0  0  0
    5.4391   -0.8194    0.0000 C   0  0  0  0  0  0  0  0  0  0  0  0
    5.6761   -2.9577    0.0000 N   0  0  0  0  0  0  0  0  0  0  0  0
    6.4030   -3.3920    0.0000 C   0  0  0  0  0  0  0  0  0  0  0  0
    7.1299   -3.0018    0.0000 N   0  0  0  0  0  0  0  0  0  0  0  0
    7.1299   -2.1772    0.0000 C   0  0  0  0  0  0  0  0  0  0  0  0
    7.8450   -1.7715    0.0000 N   0  0  0  0  0  0  0  0  0  0  0  0
    2.5265   -2.9335    0.0000 O   0  0  0  0  0  0  0  0  0  0  0  0
    4.3015   -3.1757    0.0000 O   0  0  0  0  0  0  0  0  0  0  0  0
  1  2  2  0      
  2  3  1  0      
  3  4  2  0      
  4  5  1  0      
  5  6  2  0      
  6  1  1  0      
  2  7  1  0      
  5  8  1  0      
  8  9  2  0      
  9 10  1  0      
 10 11  2  0      
 11 12  1  0      
 12 13  2  0      
 13  8  1  0      
 10 14  1  0      
 14 15  1  0      
 15 16  1  0      
 15 17  1  0      
 17 18  2  0      
 17 19  1  0      
 19 20  1  0      
 20 21  1  0      
 20 22  1  0      
 20 23  1  0      
 21 24  2  0      
 24 25  1  0      
 25 26  1  0      
 26 27  2  0      
 27 28  1  0      
 28 21  1  0      
 28 29  2  0      
 24 30  1  0      
 27 31  1  0      
 26 32  1  0      
 25 33  2  0      
 16 34  1  0      
 34 35  1  0      
 35 36  1  0      
 36 37  1  0      
 37 38  1  0      
 39 38  1  1      
 39 40  1  0      
 40 41  1  0      
 41 42  1  0      
 42 43  1  0      
 43 39  1  0      
 42 44  1  1      
 44 45  1  0      
 45 46  2  0      
 46 47  1  0      
 47 48  2  0      
 48 44  1  0      
 45 49  1  0      
 49 50  2  0      
 50 51  1  0      
 51 52  2  0      
 52 46  1  0      
 52 53  1  0      
 40 54  1  6      
 41 55  1  6      
M  END

>  <RackCode>
HYCPK72334

>  <Cat. No.>
HY-112445

>  <Product Name>
SGC3027

>  <ROW>
L

>  <COLUMN>
21

>  <CAS No.>
2624313-13-7

>  <MWt>
787.37

>  <Target>
Histone Methyltransferase

>  <Saltdate>
Free Base

>  <Smiles>
ClC1=CC=C(C2=CC(CN(C(CC(C)(C)C3=C(C)C(C(C)=C(C)C3=O)=O)=O)CCCCSC[C@@H]4[C@@H](O)[C@@H](O)[C@H](N5C(N=CN=C6N)=C6N=C5)O4)=CC=C2)C=C1

>  <Solvent>
DMSO Solution

>  <Batch No.>
63240

>  <Quantity>
10mM  * 50uL

>  <Pathway>
Epigenetics

>  <Synonyms>


>  <Formula>
C41H47ClN6O6S

>  <Research_Area>
Cancer

>  <Clinical_Information>
No Development Reported

>  <SUPPLIER>
MedChemExpress

$$$$
Untitled Document
  ChemDraw03011614232D

 23 25  0  0  0  0  0  0  0  0999 V2000
    1.0717    0.2062    0.0000 C   0  0  0  0  0  0  0  0  0  0  0  0
    1.0717   -0.6188    0.0000 C   0  0  0  0  0  0  0  0  0  0  0  0
    0.3572   -1.0313    0.0000 C   0  0  0  0  0  0  0  0  0  0  0  0
   -0.3572   -0.6188    0.0000 C   0  0  0  0  0  0  0  0  0  0  0  0
   -0.3572    0.2062    0.0000 C   0  0  0  0  0  0  0  0  0  0  0  0
    0.3572    0.6187    0.0000 O   0  0  0  0  0  0  0  0  0  0  0  0
   -1.0717    0.6187    0.0000 C   0  0  0  0  0  0  0  0  0  0  0  0
   -1.7862    0.2062    0.0000 C   0  0  0  0  0  0  0  0  0  0  0  0
   -1.7862   -0.6188    0.0000 C   0  0  0  0  0  0  0  0  0  0  0  0
   -1.0717   -1.0313    0.0000 C   0  0  0  0  0  0  0  0  0  0  0  0
    0.3572   -1.8563    0.0000 O   0  0  0  0  0  0  0  0  0  0  0  0
   -1.0717    1.4437    0.0000 O   0  0  0  0  0  0  0  0  0  0  0  0
   -1.7862    1.8563    0.0000 C   0  0  0  0  0  0  0  0  0  0  0  0
   -2.5006    0.6187    0.0000 O   0  0  0  0  0  0  0  0  0  0  0  0
   -3.2151    0.2062    0.0000 C   0  0  0  0  0  0  0  0  0  0  0  0
    1.7862    0.6187    0.0000 C   0  0  0  0  0  0  0  0  0  0  0  0
    1.7862    1.4437    0.0000 C   0  0  0  0  0  0  0  0  0  0  0  0
    2.5006    1.8563    0.0000 C   0  0  0  0  0  0  0  0  0  0  0  0
    3.2151    1.4437    0.0000 C   0  0  0  0  0  0  0  0  0  0  0  0
    3.2151    0.6187    0.0000 C   0  0  0  0  0  0  0  0  0  0  0  0
    2.5006    0.2062    0.0000 C   0  0  0  0  0  0  0  0  0  0  0  0
    1.0717    1.8563    0.0000 O   0  0  0  0  0  0  0  0  0  0  0  0
   -1.0717   -1.8563    0.0000 O   0  0  0  0  0  0  0  0  0  0  0  0
  1  2  2  0      
  2  3  1  0      
  3  4  1  0      
  4  5  1  0      
  5  6  1  0      
  1  6  1  0      
  7  8  1  0      
  8  9  2  0      
  9 10  1  0      
  4 10  2  0      
  5  7  2  0      
  3 11  2  0      
 12 13  1  0      
  7 12  1  0      
 14 15  1  0      
  8 14  1  0      
 16 17  1  0      
 17 18  2  0      
 18 19  1  0      
 19 20  2  0      
 20 21  1  0      
 16 21  2  0      
 17 22  1  0      
  1 16  1  0      
 10 23  1  0      
M  END

>  <RackCode>
HYCPK72334

>  <Cat. No.>
HY-N1235

>  <Product Name>
Skullcapflavone I

>  <ROW>
M

>  <COLUMN>
21

>  <CAS No.>
41060-16-6

>  <MWt>
314.29

>  <Target>
Elastase; MicroRNA

>  <Saltdate>


>  <Smiles>
O=C1C=C(C2=CC=CC=C2O)OC3=C(OC)C(OC)=CC(O)=C13

>  <Solvent>
DMSO Solution

>  <Batch No.>
339324

>  <Quantity>
10mM  * 50uL

>  <Pathway>
Epigenetics; Metabolic Enzyme/Protease

>  <Synonyms>
Panicolin

>  <Formula>
C17H14O6

>  <Research_Area>
Cancer

>  <Clinical_Information>
No Development Reported

>  <SUPPLIER>
MedChemExpress

$$$$
Untitled Document
  ChemDraw04172313072D

 17 18  0  0  0  0  0  0  0  0999 V2000
    0.1814   -1.3871    0.0000 C   0  0  0  0  0  0  0  0  0  0  0  0
   -0.8121   -1.3871    0.0000 C   0  0  0  0  0  0  0  0  0  0  0  0
   -1.1191   -1.0850    0.0000 C   0  0  0  0  0  0  0  0  0  0  0  0
   -0.3142   -0.8989    0.0000 O   0  0  0  0  0  0  0  0  0  0  0  0
    0.4895   -1.0850    0.0000 C   0  0  0  0  0  0  0  0  0  0  0  0
   -1.1191   -0.2600    0.0000 C   0  0  0  0  0  0  0  0  0  0  0  0
   -1.9160   -0.0465    0.0000 O   0  0  0  0  0  0  0  0  0  0  0  0
   -0.8121   -2.2121    0.0000 O   0  0  0  0  0  0  0  0  0  0  0  0
    0.4895   -0.2600    0.0000 N   0  0  0  0  0  0  0  0  0  0  0  0
    1.2040    0.1525    0.0000 C   0  0  0  0  0  0  0  0  0  0  0  0
    1.2040    0.9775    0.0000 N   0  0  0  0  0  0  0  0  0  0  0  0
    0.4895    1.3900    0.0000 C   0  0  0  0  0  0  0  0  0  0  0  0
   -0.2249    0.9775    0.0000 C   0  0  0  0  0  0  0  0  0  0  0  0
   -0.2249    0.1525    0.0000 C   0  0  0  0  0  0  0  0  0  0  0  0
    1.9160   -0.2586    0.0000 O   0  0  0  0  0  0  0  0  0  0  0  0
    0.4895    2.2121    0.0000 N   0  0  0  0  0  0  0  0  0  0  0  0
   -0.9369    1.3886    0.0000 C   0  0  0  0  0  0  0  0  0  0  0  0
  1  2  1  1      
  3  2  1  1      
  3  4  1  0      
  4  5  1  0      
  5  1  1  1      
  3  6  1  0      
  6  7  1  0      
  2  8  1  0      
  5  9  1  0      
  9 10  1  0      
 10 11  1  0      
 11 12  2  0      
 12 13  1  0      
 13 14  2  0      
 14  9  1  0      
 10 15  2  0      
 12 16  1  0      
 13 17  1  0      
M  END

>  <RackCode>
HYCPK72334

>  <Cat. No.>
HY-W012078

>  <Product Name>
5-Methyl-2'-deoxycytidine

>  <ROW>
N

>  <COLUMN>
21

>  <CAS No.>
838-07-3

>  <MWt>
241.24

>  <Target>
DNA Methyltransferase; Endogenous Metabolite

>  <Saltdate>
Free Base

>  <Smiles>
OC[C@@H]1[C@@H](O)C[C@H](N2C(N=C(N)C(C)=C2)=O)O1

>  <Solvent>
DMSO Solution

>  <Batch No.>
102214

>  <Quantity>
10mM  * 50uL

>  <Pathway>
Epigenetics; Metabolic Enzyme/Protease

>  <Synonyms>
5-Methyldeoxycytidine

>  <Formula>
C10H15N3O4

>  <Research_Area>
Others

>  <Clinical_Information>
No Development Reported

>  <SUPPLIER>
MedChemExpress

$$$$
Untitled Document
  ChemDraw12042013152D

 37 43  0  0  0  0  0  0  0  0999 V2000
    3.1402    0.1123    0.0000 N   0  0  0  0  0  0  0  0  0  0  0  0
    3.6251   -0.5551    0.0000 N   0  0  0  0  0  0  0  0  0  0  0  0
    3.1402   -1.2226    0.0000 C   0  0  0  0  0  0  0  0  0  0  0  0
    2.3556   -0.9676    0.0000 C   0  0  0  0  0  0  0  0  0  0  0  0
    1.6411   -1.3801    0.0000 C   0  0  0  0  0  0  0  0  0  0  0  0
    0.9266   -0.9676    0.0000 C   0  0  0  0  0  0  0  0  0  0  0  0
    0.9266   -0.1426    0.0000 C   0  0  0  0  0  0  0  0  0  0  0  0
    1.6411    0.2699    0.0000 C   0  0  0  0  0  0  0  0  0  0  0  0
    2.3556   -0.1426    0.0000 C   0  0  0  0  0  0  0  0  0  0  0  0
    0.1420    0.1123    0.0000 N   0  0  0  0  0  0  0  0  0  0  0  0
    0.1420   -1.2226    0.0000 C   0  0  0  0  0  0  0  0  0  0  0  0
   -0.3429   -0.5551    0.0000 C   0  0  0  0  0  0  0  0  0  0  0  0
   -1.1634   -0.6414    0.0000 C   0  0  0  0  0  0  0  0  0  0  0  0
   -1.4989   -1.3950    0.0000 C   0  0  0  0  0  0  0  0  0  0  0  0
   -1.0140   -2.0625    0.0000 C   0  0  0  0  0  0  0  0  0  0  0  0
   -0.1935   -1.9762    0.0000 N   0  0  0  0  0  0  0  0  0  0  0  0
   -0.1129    0.8969    0.0000 C   0  0  0  0  0  0  0  0  0  0  0  0
    0.6298    2.9494    0.0000 C   0  0  0  0  0  0  0  0  0  0  0  0
    0.1106    2.3083    0.0000 C   0  0  0  0  0  0  0  0  0  0  0  0
    0.4063    1.5381    0.0000 C   0  0  0  0  0  0  0  0  0  0  0  0
    1.2211    1.4090    0.0000 C   0  0  0  0  0  0  0  0  0  0  0  0
    1.7403    2.0502    0.0000 C   0  0  0  0  0  0  0  0  0  0  0  0
    1.4446    2.8204    0.0000 O   0  0  0  0  0  0  0  0  0  0  0  0
   -0.9278    1.0260    0.0000 C   0  0  0  0  0  0  0  0  0  0  0  0
   -1.2234    1.7962    0.0000 C   0  0  0  0  0  0  0  0  0  0  0  0
   -2.0383    1.9253    0.0000 C   0  0  0  0  0  0  0  0  0  0  0  0
   -2.5574    1.2841    0.0000 C   0  0  0  0  0  0  0  0  0  0  0  0
   -2.2618    0.5139    0.0000 C   0  0  0  0  0  0  0  0  0  0  0  0
   -1.4470    0.3848    0.0000 C   0  0  0  0  0  0  0  0  0  0  0  0
    3.3951    0.8969    0.0000 C   0  0  0  0  0  0  0  0  0  0  0  0
   -2.7319   -2.1957    0.0000 N   0  0  0  0  0  0  0  0  0  0  0  0
   -3.5389   -2.0242    0.0000 N   0  0  0  0  0  0  0  0  0  0  0  0
   -3.6251   -1.2037    0.0000 N   0  0  0  0  0  0  0  0  0  0  0  0
   -2.8715   -0.8682    0.0000 C   0  0  0  0  0  0  0  0  0  0  0  0
   -2.3194   -1.4813    0.0000 C   0  0  0  0  0  0  0  0  0  0  0  0
   -2.6999   -0.0612    0.0000 C   0  0  0  0  0  0  0  0  0  0  0  0
   -2.3964   -2.9494    0.0000 C   0  0  0  0  0  0  0  0  0  0  0  0
  1  2  1  0      
  2  3  2  0      
  3  4  1  0      
  4  5  2  0      
  5  6  1  0      
  6  7  2  0      
  7  8  1  0      
  8  9  2  0      
  1  9  1  0      
  4  9  1  0      
 11 12  1  0      
 10 12  1  0      
 13 14  1  0      
 14 15  2  0      
 15 16  1  0      
 16 11  2  0      
 13 12  2  0      
 11  6  1  0      
 10  7  1  0      
 18 19  1  0      
 19 20  1  0      
 20 21  1  0      
 21 22  1  0      
 22 23  1  0      
 18 23  1  0      
 17 20  1  0      
 24 25  1  0      
 25 26  2  0      
 26 27  1  0      
 27 28  2  0      
 28 29  1  0      
 24 29  2  0      
 17 24  1  0      
 17 10  1  6      
  1 30  1  0      
 31 32  1  0      
 32 33  2  0      
 33 34  1  0      
 34 35  2  0      
 31 35  1  0      
 34 36  1  0      
 31 37  1  0      
 14 35  1  0      
M  END

>  <RackCode>
HYCPK72334

>  <Cat. No.>
HY-134463

>  <Product Name>
NHWD-870

>  <ROW>
O

>  <COLUMN>
21

>  <CAS No.>
2115742-03-3

>  <MWt>
491.59

>  <Target>
Apoptosis; Epigenetic Reader Domain

>  <Saltdate>


>  <Smiles>
CN1N=CC2=CC3=C(N([C@H](C4=CC=CC=C4)C5CCOCC5)C6=CC(C7=C(C)N=NN7C)=CN=C63)C=C12

>  <Solvent>
DMSO Solution

>  <Batch No.>
154609

>  <Quantity>
10mM  * 50uL

>  <Pathway>
Apoptosis; Epigenetics

>  <Synonyms>


>  <Formula>
C29H29N7O

>  <Research_Area>
Cancer

>  <Clinical_Information>
No Development Reported

>  <SUPPLIER>
MedChemExpress

$$$$
Untitled Document
  ChemDraw05072215362D

 29 30  0  0  0  0  0  0  0  0999 V2000
   -1.4376   -1.6191    0.0000 O   0  0  0  0  0  0  0  0  0  0  0  0
   -1.4376   -0.7941    0.0000 C   0  0  0  0  0  0  0  0  0  0  0  0
   -0.7231   -0.3816    0.0000 N   0  0  0  0  0  0  0  0  0  0  0  0
   -0.0086   -0.7941    0.0000 C   0  0  0  0  0  0  0  0  0  0  0  0
    0.7059   -0.3816    0.0000 C   0  0  0  0  0  0  0  0  0  0  0  0
    1.4203   -0.7941    0.0000 C   0  0  0  0  0  0  0  0  0  0  0  0
    1.4203   -1.6191    0.0000 C   0  0  0  0  0  0  0  0  0  0  0  0
    0.7059   -2.0315    0.0000 C   0  0  0  0  0  0  0  0  0  0  0  0
   -0.0086   -1.6191    0.0000 C   0  0  0  0  0  0  0  0  0  0  0  0
   -0.7231   -2.0315    0.0000 O   0  0  0  0  0  0  0  0  0  0  0  0
    2.1347   -0.3816    0.0000 S   0  0  0  0  0  0  0  0  0  0  0  0
    2.5472   -1.0960    0.0000 O   0  0  0  0  0  0  0  0  0  0  0  0
    1.7222    0.3329    0.0000 O   0  0  0  0  0  0  0  0  0  0  0  0
    2.8492    0.0309    0.0000 N   0  0  0  0  0  0  0  0  0  0  0  0
    3.5636   -0.3816    0.0000 C   0  0  0  0  0  0  0  0  0  0  0  0
    4.2781    0.0309    0.0000 C   0  0  0  0  0  0  0  0  0  0  0  0
    2.8492    0.8559    0.0000 C   0  0  0  0  0  0  0  0  0  0  0  0
    3.5636    1.2684    0.0000 C   0  0  0  0  0  0  0  0  0  0  0  0
   -2.1519   -0.3816    0.0000 C   0  0  0  0  0  0  0  0  0  0  0  0
   -2.9056   -0.7171    0.0000 N   0  0  0  0  0  0  0  0  0  0  0  0
   -3.4576   -0.1040    0.0000 C   0  0  0  0  0  0  0  0  0  0  0  0
   -3.0451    0.6104    0.0000 C   0  0  0  0  0  0  0  0  0  0  0  0
   -3.3807    1.3641    0.0000 C   0  0  0  0  0  0  0  0  0  0  0  0
   -2.8958    2.0315    0.0000 O   0  0  0  0  0  0  0  0  0  0  0  0
   -4.2012    1.4504    0.0000 C   0  0  0  0  0  0  0  0  0  0  0  0
   -2.2382    0.4389    0.0000 C   0  0  0  0  0  0  0  0  0  0  0  0
   -1.6252    0.9910    0.0000 C   0  0  0  0  0  0  0  0  0  0  0  0
   -0.8405    0.7360    0.0000 C   0  0  0  0  0  0  0  0  0  0  0  0
   -4.2781   -0.1903    0.0000 C   0  0  0  0  0  0  0  0  0  0  0  0
  1  2  2  0      
  2  3  1  0      
  3  4  1  0      
  4  5  2  0      
  5  6  1  0      
  6  7  2  0      
  7  8  1  0      
  8  9  2  0      
  4  9  1  0      
  9 10  1  0      
  6 11  1  0      
 11 12  2  0      
 11 13  2  0      
 11 14  1  0      
 14 15  1  0      
 15 16  1  0      
 14 17  1  0      
 17 18  1  0      
  2 19  1  0      
 19 20  1  0      
 20 21  1  0      
 21 22  2  0      
 22 23  1  0      
 23 24  2  0      
 23 25  1  0      
 22 26  1  0      
 19 26  2  0      
 26 27  1  0      
 27 28  1  0      
 21 29  1  0      
M  END

>  <RackCode>
HYCPK72334

>  <Cat. No.>
HY-110215

>  <Product Name>
XD14

>  <ROW>
P

>  <COLUMN>
21

>  <CAS No.>
1370888-71-3

>  <MWt>
421.51

>  <Target>
Epigenetic Reader Domain

>  <Saltdate>


>  <Smiles>
O=C(C1=C(CC)C(C(C)=O)=C(C)N1)NC2=CC(S(=O)(N(CC)CC)=O)=CC=C2O

>  <Solvent>
DMSO Solution

>  <Batch No.>
246641

>  <Quantity>
10mM  * 50uL

>  <Pathway>
Epigenetics

>  <Synonyms>


>  <Formula>
C20H27N3O5S

>  <Research_Area>
Cancer

>  <Clinical_Information>
No Development Reported

>  <SUPPLIER>
MedChemExpress

$$$$
Untitled Document
  ChemDraw09012015482D

 27 27  0  0  0  0  0  0  0  0999 V2000
   -0.0036    0.4590    0.0000 O   0  0  0  0  0  0  0  0  0  0  0  0
    0.7501    0.1234    0.0000 C   0  0  0  0  0  0  0  0  0  0  0  0
    0.6639   -0.6971    0.0000 C   0  0  0  0  0  0  0  0  0  0  0  0
   -0.1431   -0.8686    0.0000 C   0  0  0  0  0  0  0  0  0  0  0  0
   -0.5556   -0.1541    0.0000 C   0  0  0  0  0  0  0  0  0  0  0  0
    2.8934    1.3609    0.0000 C   0  0  0  0  0  0  0  0  0  0  0  0
    2.8934    0.5359    0.0000 C   0  0  0  0  0  0  0  0  0  0  0  0
    2.1790    0.1234    0.0000 C   0  0  0  0  0  0  0  0  0  0  0  0
    1.4646    0.5359    0.0000 C   0  0  0  0  0  0  0  0  0  0  0  0
    1.4646    1.3609    0.0000 C   0  0  0  0  0  0  0  0  0  0  0  0
    2.1790    1.7734    0.0000 C   0  0  0  0  0  0  0  0  0  0  0  0
    3.6079    1.7734    0.0000 C   0  0  0  0  0  0  0  0  0  0  0  0
    3.6079    2.5984    0.0000 N   0  0  0  0  0  0  0  0  0  0  0  0
    4.3224    1.3609    0.0000 N   0  0  0  0  0  0  0  0  0  0  0  0
   -3.0170    0.1046    0.0000 C   0  0  0  0  0  0  0  0  0  0  0  0
   -2.5321    0.7720    0.0000 C   0  0  0  0  0  0  0  0  0  0  0  0
   -1.7116    0.6858    0.0000 C   0  0  0  0  0  0  0  0  0  0  0  0
   -1.3761   -0.0679    0.0000 C   0  0  0  0  0  0  0  0  0  0  0  0
   -1.8610   -0.7353    0.0000 C   0  0  0  0  0  0  0  0  0  0  0  0
   -2.6815   -0.6491    0.0000 C   0  0  0  0  0  0  0  0  0  0  0  0
   -3.8374    0.1908    0.0000 C   0  0  0  0  0  0  0  0  0  0  0  0
   -4.1730    0.9445    0.0000 N   0  0  0  0  0  0  0  0  0  0  0  0
   -4.3224   -0.4766    0.0000 N   0  0  0  0  0  0  0  0  0  0  0  0
   -0.3525   -1.7734    0.0000 H   0  0  0  0  0  0  0  0  0  0  0  0
    0.4725   -1.7734    0.0000 Cl  0  0  0  0  0  0  0  0  0  0  0  0
   -0.3525   -2.5984    0.0000 H   0  0  0  0  0  0  0  0  0  0  0  0
    0.4725   -2.5984    0.0000 Cl  0  0  0  0  0  0  0  0  0  0  0  0
  1  2  1  0      
  2  3  2  0      
  3  4  1  0      
  4  5  2  0      
  1  5  1  0      
  6  7  1  0      
  7  8  2  0      
  8  9  1  0      
  9 10  2  0      
 10 11  1  0      
  6 11  2  0      
 12 13  2  0      
 12 14  1  0      
  6 12  1  0      
  2  9  1  0      
 15 16  1  0      
 16 17  2  0      
 17 18  1  0      
 18 19  2  0      
 19 20  1  0      
 15 20  2  0      
 21 22  2  0      
 21 23  1  0      
 15 21  1  0      
  5 18  1  0      
 24 25  1  0      
 26 27  1  0      
M  END

>  <RackCode>
HYCPK72334

>  <Cat. No.>
HY-110137

>  <Product Name>
Furamidine (dihydrochloride)

>  <ROW>
A

>  <COLUMN>
22

>  <CAS No.>
55368-40-6

>  <MWt>
377.27

>  <Target>
Histone Methyltransferase; Parasite; Phosphodiesterase (PDE)

>  <Saltdate>
Hydrochloride

>  <Smiles>
N=C(C1=CC=C(C2=CC=C(C3=CC=C(C(N)=N)C=C3)O2)C=C1)N.[H]Cl.[H]Cl

>  <Solvent>
DMSO Solution

>  <Batch No.>
403082

>  <Quantity>
10mM  * 50uL

>  <Pathway>
Anti-infection; Epigenetics; Metabolic Enzyme/Protease

>  <Synonyms>
DB75 (dihydrochloride); NSC 305831 (dihydrochloride)

>  <Formula>
C18H18Cl2N4O

>  <Research_Area>
Cancer; Infection; Inflammation/Immunology

>  <Clinical_Information>
No Development Reported

>  <SUPPLIER>
MedChemExpress

$$$$
Untitled Document
  ChemDraw12312009022D

 35 39  0  0  0  0  0  0  0  0999 V2000
   -1.8003   -0.6461    0.0000 C   0  0  0  0  0  0  0  0  0  0  0  0
   -1.8003   -1.4711    0.0000 N   0  0  0  0  0  0  0  0  0  0  0  0
   -1.0858   -1.8835    0.0000 C   0  0  0  0  0  0  0  0  0  0  0  0
   -0.3713   -1.4711    0.0000 C   0  0  0  0  0  0  0  0  0  0  0  0
   -0.3713   -0.6461    0.0000 C   0  0  0  0  0  0  0  0  0  0  0  0
   -1.0858   -0.2336    0.0000 N   0  0  0  0  0  0  0  0  0  0  0  0
   -1.0858   -2.7085    0.0000 N   0  0  0  0  0  0  0  0  0  0  0  0
    2.5566    0.8463    0.0000 N   0  0  0  0  0  0  0  0  0  0  0  0
    3.0415    0.1789    0.0000 C   0  0  0  0  0  0  0  0  0  0  0  0
    2.5566   -0.4886    0.0000 C   0  0  0  0  0  0  0  0  0  0  0  0
    1.7721   -0.2336    0.0000 C   0  0  0  0  0  0  0  0  0  0  0  0
    1.0576   -0.6461    0.0000 C   0  0  0  0  0  0  0  0  0  0  0  0
    0.3431   -0.2336    0.0000 C   0  0  0  0  0  0  0  0  0  0  0  0
    0.3431    0.5914    0.0000 C   0  0  0  0  0  0  0  0  0  0  0  0
    1.0576    1.0039    0.0000 C   0  0  0  0  0  0  0  0  0  0  0  0
    1.7721    0.5914    0.0000 C   0  0  0  0  0  0  0  0  0  0  0  0
    3.3214    3.2001    0.0000 N   0  0  0  0  0  0  0  0  0  0  0  0
    2.5144    3.0285    0.0000 C   0  0  0  0  0  0  0  0  0  0  0  0
    2.2595    2.2439    0.0000 C   0  0  0  0  0  0  0  0  0  0  0  0
    2.8115    1.6309    0.0000 C   0  0  0  0  0  0  0  0  0  0  0  0
    3.6185    1.8024    0.0000 C   0  0  0  0  0  0  0  0  0  0  0  0
    3.8734    2.5870    0.0000 C   0  0  0  0  0  0  0  0  0  0  0  0
    4.4865    3.1390    0.0000 C   0  0  0  0  0  0  0  0  0  0  0  0
    4.6581    2.3320    0.0000 C   0  0  0  0  0  0  0  0  0  0  0  0
    1.7299    3.2835    0.0000 C   0  0  0  0  0  0  0  0  0  0  0  0
    2.3429    3.8355    0.0000 C   0  0  0  0  0  0  0  0  0  0  0  0
   -2.5147   -0.2336    0.0000 S   0  0  0  0  0  0  0  0  0  0  0  0
   -2.1022    0.4808    0.0000 O   0  0  0  0  0  0  0  0  0  0  0  0
   -2.9272   -0.9481    0.0000 O   0  0  0  0  0  0  0  0  0  0  0  0
   -3.2291    0.1789    0.0000 C   0  0  0  0  0  0  0  0  0  0  0  0
   -3.9436   -0.2336    0.0000 C   0  0  0  0  0  0  0  0  0  0  0  0
   -4.6581    0.1789    0.0000 C   0  0  0  0  0  0  0  0  0  0  0  0
   -1.8003   -3.1210    0.0000 C   0  0  0  0  0  0  0  0  0  0  0  0
   -2.2127   -3.8355    0.0000 C   0  0  0  0  0  0  0  0  0  0  0  0
   -2.6252   -3.1210    0.0000 C   0  0  0  0  0  0  0  0  0  0  0  0
  1  2  1  0      
  2  3  2  0      
  3  4  1  0      
  4  5  2  0      
  5  6  1  0      
  1  6  2  0      
  3  7  1  0      
  8  9  1  0      
  9 10  2  0      
 10 11  1  0      
 11 12  1  0      
 12 13  2  0      
 13 14  1  0      
 14 15  2  0      
 15 16  1  0      
  8 16  1  0      
 11 16  2  0      
 17 18  1  0      
 18 19  1  0      
 19 20  1  0      
 20 21  1  0      
 21 22  1  0      
 17 22  1  0      
 22 23  1  0      
 22 24  1  0      
 18 25  1  0      
 18 26  1  0      
  8 20  1  0      
  5 13  1  0      
 27 28  2  0      
 27 29  2  0      
 30 31  1  0      
 31 32  1  0      
 27 30  1  0      
  1 27  1  0      
 33 34  1  0      
 34 35  1  0      
 33 35  1  0      
  7 33  1  0      
M  END

>  <RackCode>
HYCPK72334

>  <Cat. No.>
HY-110374

>  <Product Name>
NVS-CECR2-1

>  <ROW>
B

>  <COLUMN>
22

>  <CAS No.>
1992047-61-6

>  <MWt>
495.68

>  <Target>
Apoptosis; Epigenetic Reader Domain

>  <Saltdate>


>  <Smiles>
CC1(C)CC(N2C=CC3=C2C=CC(C4=CC(NC5CC5)=NC(S(=O)(CCC)=O)=N4)=C3)CC(C)(C)N1

>  <Solvent>
DMSO Solution

>  <Batch No.>
239165

>  <Quantity>
10mM  * 50uL

>  <Pathway>
Apoptosis; Epigenetics

>  <Synonyms>


>  <Formula>
C27H37N5O2S

>  <Research_Area>
Cancer

>  <Clinical_Information>
No Development Reported

>  <SUPPLIER>
MedChemExpress

$$$$
Untitled Document
  ChemDraw09012215412D

 20 22  0  0  0  0  0  0  0  0999 V2000
   -1.1051    3.2924    0.0000 O   0  0  0  0  0  0  0  0  0  0  0  0
   -0.3863    2.8874    0.0000 C   0  0  0  0  0  0  0  0  0  0  0  0
    0.3238    3.3073    0.0000 N   0  0  0  0  0  0  0  0  0  0  0  0
    1.0425    2.9023    0.0000 N   0  0  0  0  0  0  0  0  0  0  0  0
    1.0511    2.0774    0.0000 C   0  0  0  0  0  0  0  0  0  0  0  0
    1.7699    1.6724    0.0000 O   0  0  0  0  0  0  0  0  0  0  0  0
    0.3410    1.6574    0.0000 C   0  0  0  0  0  0  0  0  0  0  0  0
   -0.3777    2.0624    0.0000 C   0  0  0  0  0  0  0  0  0  0  0  0
   -1.0878    1.6425    0.0000 C   0  0  0  0  0  0  0  0  0  0  0  0
   -1.0792    0.8175    0.0000 C   0  0  0  0  0  0  0  0  0  0  0  0
   -0.3605    0.4125    0.0000 C   0  0  0  0  0  0  0  0  0  0  0  0
   -0.3518   -0.4124    0.0000 O   0  0  0  0  0  0  0  0  0  0  0  0
   -1.0620   -0.8324    0.0000 C   0  0  0  0  0  0  0  0  0  0  0  0
   -1.0533   -1.6573    0.0000 C   0  0  0  0  0  0  0  0  0  0  0  0
    0.3497    0.8325    0.0000 C   0  0  0  0  0  0  0  0  0  0  0  0
   -1.7699   -2.0662    0.0000 C   0  0  0  0  0  0  0  0  0  0  0  0
   -1.7699   -2.8912    0.0000 C   0  0  0  0  0  0  0  0  0  0  0  0
   -1.0533   -3.3073    0.0000 C   0  0  0  0  0  0  0  0  0  0  0  0
   -0.3368   -2.8912    0.0000 C   0  0  0  0  0  0  0  0  0  0  0  0
   -0.3368   -2.0662    0.0000 C   0  0  0  0  0  0  0  0  0  0  0  0
  1  2  2  0      
  2  3  1  0      
  3  4  1  0      
  4  5  1  0      
  5  6  2  0      
  5  7  1  0      
  7  8  2  0      
  2  8  1  0      
  8  9  1  0      
  9 10  2  0      
 10 11  1  0      
 11 12  1  0      
 12 13  1  0      
 13 14  1  0      
 11 15  2  0      
  7 15  1  0      
 14 16  1  0      
 16 17  1  0      
 17 18  1  0      
 18 19  1  0      
 19 20  1  0      
 20 14  1  0      
M  END

>  <RackCode>
HYCPK72334

>  <Cat. No.>
HY-146502

>  <Product Name>
PARP10/15-IN-3

>  <ROW>
C

>  <COLUMN>
22

>  <CAS No.>
2892064-88-7

>  <MWt>
274.32

>  <Target>
Apoptosis; PARP

>  <Saltdate>


>  <Smiles>
O=C1NNC(C2=C1C=CC(OCC3CCCCC3)=C2)=O

>  <Solvent>
DMSO Solution

>  <Batch No.>
241348

>  <Quantity>
10mM  * 50uL

>  <Pathway>
Apoptosis; Cell Cycle/DNA Damage; Epigenetics

>  <Synonyms>


>  <Formula>
C15H18N2O3

>  <Research_Area>
Cancer

>  <Clinical_Information>
No Development Reported

>  <SUPPLIER>
MedChemExpress

$$$$
Untitled Document
  ChemDraw09221716262D

 11 12  0  0  0  0  0  0  0  0999 V2000
    0.8882   -0.5632    0.0000 C   0  0  0  0  0  0  0  0  0  0  0  0
    0.2751   -0.0112    0.0000 C   0  0  0  0  0  0  0  0  0  0  0  0
    0.4467    0.7958    0.0000 C   0  0  0  0  0  0  0  0  0  0  0  0
    1.2313    1.0507    0.0000 C   0  0  0  0  0  0  0  0  0  0  0  0
    1.8444    0.4987    0.0000 C   0  0  0  0  0  0  0  0  0  0  0  0
    1.6728   -0.3083    0.0000 N   0  0  0  0  0  0  0  0  0  0  0  0
   -0.7644   -1.0507    0.0000 N   0  0  0  0  0  0  0  0  0  0  0  0
   -1.5894   -1.0507    0.0000 N   0  0  0  0  0  0  0  0  0  0  0  0
   -1.8444   -0.2661    0.0000 N   0  0  0  0  0  0  0  0  0  0  0  0
   -1.1769    0.2188    0.0000 C   0  0  0  0  0  0  0  0  0  0  0  0
   -0.5095   -0.2661    0.0000 C   0  0  0  0  0  0  0  0  0  0  0  0
  1  2  1  0      
  2  3  2  0      
  3  4  1  0      
  4  5  2  0      
  5  6  1  0      
  1  6  2  0      
  7  8  1  0      
  8  9  2  0      
  9 10  1  0      
 10 11  2  0      
  7 11  1  0      
  2 11  1  0      
M  END

>  <RackCode>
HYCPK72334

>  <Cat. No.>
HY-108331

>  <Product Name>
3-TYP

>  <ROW>
D

>  <COLUMN>
22

>  <CAS No.>
120241-79-4

>  <MWt>
146.15

>  <Target>
Indoleamine 2,3-Dioxygenase (IDO); Methionine Adenosyltransferase (MAT); Sirtuin

>  <Saltdate>


>  <Smiles>
C1(C2=CN=NN2)=CC=CN=C1

>  <Solvent>
DMSO Solution

>  <Batch No.>
105728

>  <Quantity>
10mM  * 50uL

>  <Pathway>
Cell Cycle/DNA Damage; Epigenetics; Metabolic Enzyme/Protease

>  <Synonyms>


>  <Formula>
C7H6N4

>  <Research_Area>
Others

>  <Clinical_Information>
No Development Reported

>  <SUPPLIER>
MedChemExpress

$$$$
Untitled Document
  ChemDraw10221513572D

 38 41  0  0  0  0  0  0  0  0999 V2000
    0.8735    0.2062    0.0000 C   0  0  0  0  0  0  0  0  0  0  0  0
    0.1591    0.6188    0.0000 C   0  0  0  0  0  0  0  0  0  0  0  0
    0.1591    1.4438    0.0000 C   0  0  0  0  0  0  0  0  0  0  0  0
    1.5880    0.6188    0.0000 O   0  0  0  0  0  0  0  0  0  0  0  0
   -0.5554    1.8563    0.0000 C   0  0  0  0  0  0  0  0  0  0  0  0
   -1.2699    1.4438    0.0000 C   0  0  0  0  0  0  0  0  0  0  0  0
   -1.9843    1.8563    0.0000 C   0  0  0  0  0  0  0  0  0  0  0  0
   -1.9843    2.6813    0.0000 C   0  0  0  0  0  0  0  0  0  0  0  0
   -1.2699    3.0938    0.0000 C   0  0  0  0  0  0  0  0  0  0  0  0
   -0.5554    2.6813    0.0000 C   0  0  0  0  0  0  0  0  0  0  0  0
    3.0170   -1.0313    0.0000 C   0  0  0  0  0  0  0  0  0  0  0  0
    3.0170   -1.8563    0.0000 C   0  0  0  0  0  0  0  0  0  0  0  0
    2.3025   -2.2688    0.0000 C   0  0  0  0  0  0  0  0  0  0  0  0
    1.5880   -1.8563    0.0000 C   0  0  0  0  0  0  0  0  0  0  0  0
    1.5880   -1.0313    0.0000 C   0  0  0  0  0  0  0  0  0  0  0  0
    2.3025   -0.6188    0.0000 O   0  0  0  0  0  0  0  0  0  0  0  0
    0.8735   -0.6188    0.0000 C   0  0  0  0  0  0  0  0  0  0  0  0
    0.1591   -1.0313    0.0000 C   0  0  0  0  0  0  0  0  0  0  0  0
    0.1591   -1.8563    0.0000 C   0  0  0  0  0  0  0  0  0  0  0  0
    0.8735   -2.2688    0.0000 C   0  0  0  0  0  0  0  0  0  0  0  0
    3.4295   -0.3168    0.0000 C   0  0  0  0  0  0  0  0  0  0  0  0
    3.8420   -1.0313    0.0000 C   0  0  0  0  0  0  0  0  0  0  0  0
   -0.6659   -1.0313    0.0000 O   0  0  0  0  0  0  0  0  0  0  0  0
    0.8735   -3.0938    0.0000 O   0  0  0  0  0  0  0  0  0  0  0  0
   -0.7697   -2.3925    0.0000 C   0  0  0  0  0  0  0  0  0  0  0  0
   -1.6985   -1.8563    0.0000 C   0  0  0  0  0  0  0  0  0  0  0  0
   -1.6985   -1.0313    0.0000 C   0  0  0  0  0  0  0  0  0  0  0  0
   -2.4130   -0.6188    0.0000 C   0  0  0  0  0  0  0  0  0  0  0  0
   -3.1275   -1.0313    0.0000 C   0  0  0  0  0  0  0  0  0  0  0  0
   -3.1275   -1.8563    0.0000 C   0  0  0  0  0  0  0  0  0  0  0  0
   -2.4130   -2.2688    0.0000 C   0  0  0  0  0  0  0  0  0  0  0  0
   -3.8420   -2.2688    0.0000 C   0  0  0  0  0  0  0  0  0  0  0  0
   -2.4130   -3.0938    0.0000 O   0  0  0  0  0  0  0  0  0  0  0  0
   -3.8420   -0.6188    0.0000 O   0  0  0  0  0  0  0  0  0  0  0  0
   -1.1152   -0.4479    0.0000 O   0  0  0  0  0  0  0  0  0  0  0  0
   -2.4130    0.2062    0.0000 C   0  0  0  0  0  0  0  0  0  0  0  0
   -1.6985    0.6188    0.0000 O   0  0  0  0  0  0  0  0  0  0  0  0
   -3.1275    0.6188    0.0000 C   0  0  0  0  0  0  0  0  0  0  0  0
  1  2  1  0      
  2  3  2  0      
  1  4  2  0      
  5  6  1  0      
  6  7  2  0      
  7  8  1  0      
  8  9  2  0      
  9 10  1  0      
  5 10  2  0      
  3  5  1  0      
 11 12  1  0      
 12 13  2  0      
 13 14  1  0      
 14 15  1  0      
 15 16  1  0      
 11 16  1  0      
 17 18  1  0      
 18 19  2  0      
 19 20  1  0      
 14 20  2  0      
 15 17  2  0      
 11 21  1  0      
 11 22  1  0      
 18 23  1  0      
 20 24  1  0      
 26 27  1  0      
 27 28  2  0      
 28 29  1  0      
 29 30  2  0      
 30 31  1  0      
 26 31  2  0      
 30 32  1  0      
 31 33  1  0      
 29 34  1  0      
 27 35  1  0      
 36 37  2  0      
 36 38  1  0      
 28 36  1  0      
 25 26  1  0      
 19 25  1  0      
  1 17  1  0      
M  END

>  <RackCode>
HYCPK72334

>  <Cat. No.>
HY-18980

>  <Product Name>
Rottlerin

>  <ROW>
E

>  <COLUMN>
22

>  <CAS No.>
82-08-6

>  <MWt>
516.54

>  <Target>
Apoptosis; Autophagy; HIV; PKC; RABV

>  <Saltdate>
Free Base

>  <Smiles>
O=C(C1=C2C(C=CC(C)(C)O2)=C(O)C(CC3=C(O)C(C)=C(O)C(C(C)=O)=C3O)=C1O)/C=C/C4=CC=CC=C4

>  <Solvent>
DMSO Solution

>  <Batch No.>
152563

>  <Quantity>
10mM  * 50uL

>  <Pathway>
Anti-infection; Apoptosis; Autophagy; Epigenetics; TGF-beta/Smad

>  <Synonyms>
Mallotoxin; NSC 56346; NSC 94525

>  <Formula>
C30H28O8

>  <Research_Area>
Infection; Cancer

>  <Clinical_Information>
No Development Reported

>  <SUPPLIER>
MedChemExpress

$$$$
Untitled Document
  ChemDraw11132109212D

 25 28  0  0  0  0  0  0  0  0999 V2000
   -3.0949   -3.1894    0.0000 N   0  0  0  0  0  0  0  0  0  0  0  0
   -2.3804   -2.7769    0.0000 C   0  0  0  0  0  0  0  0  0  0  0  0
   -1.6660   -2.3644    0.0000 C   0  0  0  0  0  0  0  0  0  0  0  0
   -1.6660   -1.5395    0.0000 C   0  0  0  0  0  0  0  0  0  0  0  0
   -2.3804   -1.1270    0.0000 C   0  0  0  0  0  0  0  0  0  0  0  0
   -2.3804   -0.3020    0.0000 C   0  0  0  0  0  0  0  0  0  0  0  0
   -1.6660    0.1105    0.0000 C   0  0  0  0  0  0  0  0  0  0  0  0
   -0.9516   -0.3020    0.0000 C   0  0  0  0  0  0  0  0  0  0  0  0
   -0.2371    0.1105    0.0000 F   0  0  0  0  0  0  0  0  0  0  0  0
   -0.9516   -1.1270    0.0000 C   0  0  0  0  0  0  0  0  0  0  0  0
   -1.6660    0.9355    0.0000 C   0  0  0  0  0  0  0  0  0  0  0  0
   -2.3804    1.3480    0.0000 C   0  0  0  0  0  0  0  0  0  0  0  0
   -2.3804    2.1729    0.0000 C   0  0  0  0  0  0  0  0  0  0  0  0
   -1.6660    2.5854    0.0000 C   0  0  0  0  0  0  0  0  0  0  0  0
   -0.9516    2.1729    0.0000 C   0  0  0  0  0  0  0  0  0  0  0  0
   -0.1669    2.4279    0.0000 N   0  0  0  0  0  0  0  0  0  0  0  0
    0.3180    1.7604    0.0000 C   0  0  0  0  0  0  0  0  0  0  0  0
   -0.1669    1.0931    0.0000 C   0  0  0  0  0  0  0  0  0  0  0  0
   -0.9516    1.3480    0.0000 N   0  0  0  0  0  0  0  0  0  0  0  0
    1.1430    1.7604    0.0000 N   0  0  0  0  0  0  0  0  0  0  0  0
    1.5555    2.4749    0.0000 C   0  0  0  0  0  0  0  0  0  0  0  0
    1.1430    3.1894    0.0000 O   0  0  0  0  0  0  0  0  0  0  0  0
    2.3804    2.4749    0.0000 C   0  0  0  0  0  0  0  0  0  0  0  0
    3.0949    2.8874    0.0000 C   0  0  0  0  0  0  0  0  0  0  0  0
    3.0949    2.0624    0.0000 C   0  0  0  0  0  0  0  0  0  0  0  0
  1  2  3  0      
  2  3  1  0      
  3  4  1  0      
  4  5  1  0      
  5  6  2  0      
  6  7  1  0      
  7  8  2  0      
  8  9  1  0      
  8 10  1  0      
  4 10  2  0      
  7 11  1  0      
 11 12  2  0      
 12 13  1  0      
 13 14  2  0      
 14 15  1  0      
 15 16  2  0      
 16 17  1  0      
 17 18  2  0      
 18 19  1  0      
 15 19  1  0      
 11 19  1  0      
 17 20  1  0      
 20 21  1  0      
 21 22  2  0      
 21 23  1  0      
 23 24  1  0      
 24 25  1  0      
 23 25  1  0      
M  END

>  <RackCode>
HYCPK72334

>  <Cat. No.>
HY-139807

>  <Product Name>
JAK-IN-14

>  <ROW>
F

>  <COLUMN>
22

>  <CAS No.>
1973485-06-1

>  <MWt>
334.35

>  <Target>
JAK

>  <Saltdate>


>  <Smiles>
N#CCC1=CC(F)=C(C2=CC=CC3=NC(NC(C4CC4)=O)=CN32)C=C1

>  <Solvent>
DMSO Solution

>  <Batch No.>
124079

>  <Quantity>
10mM  * 50uL

>  <Pathway>
Epigenetics; JAK/STAT Signaling; Protein Tyrosine Kinase/RTK; Stem Cell/Wnt

>  <Synonyms>


>  <Formula>
C19H15FN4O

>  <Research_Area>
Inflammation/Immunology

>  <Clinical_Information>
No Development Reported

>  <SUPPLIER>
MedChemExpress

$$$$
Untitled Document
  ChemDraw04082117262D

 24 27  0  0  0  0  0  0  0  0999 V2000
    3.2215    0.0000    0.0000 C   0  0  0  0  0  0  0  0  0  0  0  0
    3.6340   -0.7145    0.0000 C   0  0  0  0  0  0  0  0  0  0  0  0
    3.6340    0.7145    0.0000 C   0  0  0  0  0  0  0  0  0  0  0  0
    4.0465    0.0000    0.0000 O   0  0  0  0  0  0  0  0  0  0  0  0
    2.3965    0.0000    0.0000 C   0  0  0  0  0  0  0  0  0  0  0  0
    1.9116   -0.6674    0.0000 C   0  0  0  0  0  0  0  0  0  0  0  0
    1.1270   -0.4125    0.0000 C   0  0  0  0  0  0  0  0  0  0  0  0
    1.1270    0.4125    0.0000 C   0  0  0  0  0  0  0  0  0  0  0  0
    0.4125    0.8250    0.0000 C   0  0  0  0  0  0  0  0  0  0  0  0
   -0.3020    0.4125    0.0000 C   0  0  0  0  0  0  0  0  0  0  0  0
   -0.3020   -0.4125    0.0000 C   0  0  0  0  0  0  0  0  0  0  0  0
    0.4125   -0.8250    0.0000 C   0  0  0  0  0  0  0  0  0  0  0  0
   -1.0866   -0.6674    0.0000 C   0  0  0  0  0  0  0  0  0  0  0  0
   -1.5715    0.0000    0.0000 C   0  0  0  0  0  0  0  0  0  0  0  0
   -1.0866    0.6674    0.0000 O   0  0  0  0  0  0  0  0  0  0  0  0
   -2.3965    0.0000    0.0000 C   0  0  0  0  0  0  0  0  0  0  0  0
   -2.8090   -0.7145    0.0000 C   0  0  0  0  0  0  0  0  0  0  0  0
   -3.6340   -0.7145    0.0000 C   0  0  0  0  0  0  0  0  0  0  0  0
   -4.0465   -1.4289    0.0000 O   0  0  0  0  0  0  0  0  0  0  0  0
   -4.0465    0.0000    0.0000 C   0  0  0  0  0  0  0  0  0  0  0  0
   -3.6340    0.7145    0.0000 C   0  0  0  0  0  0  0  0  0  0  0  0
   -4.0465    1.4289    0.0000 O   0  0  0  0  0  0  0  0  0  0  0  0
   -2.8090    0.7145    0.0000 C   0  0  0  0  0  0  0  0  0  0  0  0
    1.9116    0.6674    0.0000 O   0  0  0  0  0  0  0  0  0  0  0  0
  1  2  1  0      
  1  3  1  0      
  1  4  1  0      
  5  1  1  1      
  5  6  1  0      
  6  7  1  0      
  7  8  1  0      
  8  9  2  0      
  9 10  1  0      
 10 11  2  0      
 11 12  1  0      
  7 12  2  0      
 11 13  1  0      
 13 14  2  0      
 14 15  1  0      
 10 15  1  0      
 14 16  1  0      
 16 17  2  0      
 17 18  1  0      
 18 19  1  0      
 18 20  2  0      
 20 21  1  0      
 21 22  1  0      
 21 23  2  0      
 16 23  1  0      
  8 24  1  0      
  5 24  1  0      
M  END

>  <RackCode>
HYCPK72334

>  <Cat. No.>
HY-N3244

>  <Product Name>
Moracin O

>  <ROW>
G

>  <COLUMN>
22

>  <CAS No.>
123702-97-6

>  <MWt>
326.34

>  <Target>
HIF/HIF Prolyl-Hydroxylase; Reactive Oxygen Species

>  <Saltdate>


>  <Smiles>
CC(O)([C@H]1CC2=CC(C=C(C3=CC(O)=CC(O)=C3)O4)=C4C=C2O1)C

>  <Solvent>
DMSO Solution

>  <Batch No.>
248965

>  <Quantity>
10mM  * 50uL

>  <Pathway>
Immunology/Inflammation; Metabolic Enzyme/Protease; NF-¦ÊB

>  <Synonyms>


>  <Formula>
C19H18O5

>  <Research_Area>
Cancer; Inflammation/Immunology; Neurological Disease

>  <Clinical_Information>
No Development Reported

>  <SUPPLIER>
MedChemExpress

$$$$
Untitled Document
  ChemDraw03261815512D

 25 28  0  0  0  0  0  0  0  0999 V2000
   -1.3668    0.9693    0.0000 C   0  0  0  0  0  0  0  0  0  0  0  0
   -2.1709    1.1402    0.0000 C   0  0  0  0  0  0  0  0  0  0  0  0
   -2.4250    1.9221    0.0000 N   0  0  0  0  0  0  0  0  0  0  0  0
   -3.2291    2.0930    0.0000 C   0  0  0  0  0  0  0  0  0  0  0  0
   -1.8749    2.5331    0.0000 C   0  0  0  0  0  0  0  0  0  0  0  0
   -1.1127    0.1874    0.0000 C   0  0  0  0  0  0  0  0  0  0  0  0
   -0.3308   -0.0667    0.0000 N   0  0  0  0  0  0  0  0  0  0  0  0
    0.3812    0.3444    0.0000 C   0  0  0  0  0  0  0  0  0  0  0  0
    1.0932   -0.0667    0.0000 C   0  0  0  0  0  0  0  0  0  0  0  0
    1.0932   -0.8888    0.0000 C   0  0  0  0  0  0  0  0  0  0  0  0
    0.3812   -1.2999    0.0000 C   0  0  0  0  0  0  0  0  0  0  0  0
   -0.3308   -0.8888    0.0000 C   0  0  0  0  0  0  0  0  0  0  0  0
   -1.1127   -1.1429    0.0000 N   0  0  0  0  0  0  0  0  0  0  0  0
   -1.5959   -0.4777    0.0000 N   0  0  0  0  0  0  0  0  0  0  0  0
    1.8052   -1.2999    0.0000 C   0  0  0  0  0  0  0  0  0  0  0  0
    1.8052   -2.1220    0.0000 C   0  0  0  0  0  0  0  0  0  0  0  0
    2.5172   -2.5331    0.0000 C   0  0  0  0  0  0  0  0  0  0  0  0
    3.2291   -2.1220    0.0000 C   0  0  0  0  0  0  0  0  0  0  0  0
    3.2291   -1.2999    0.0000 C   0  0  0  0  0  0  0  0  0  0  0  0
    2.5172   -0.8888    0.0000 C   0  0  0  0  0  0  0  0  0  0  0  0
    1.8052    0.3444    0.0000 C   0  0  0  0  0  0  0  0  0  0  0  0
    1.8052    1.1665    0.0000 C   0  0  0  0  0  0  0  0  0  0  0  0
    1.0932    1.5776    0.0000 C   0  0  0  0  0  0  0  0  0  0  0  0
    0.3812    1.1665    0.0000 C   0  0  0  0  0  0  0  0  0  0  0  0
    2.5172    1.5776    0.0000 Cl  0  0  0  0  0  0  0  0  0  0  0  0
  1  2  1  0      
  1  6  1  0      
  2  3  1  0      
  3  4  1  0      
  3  5  1  0      
  6  7  1  0      
  6 14  2  0      
  7  8  1  0      
  7 12  1  0      
  8  9  1  0      
  8 24  2  0      
  9 10  1  0      
  9 21  2  0      
 11 10  2  0      
 10 15  1  0      
 12 11  1  0      
 12 13  2  0      
 14 13  1  0      
 15 16  2  0      
 15 20  1  0      
 16 17  1  0      
 17 18  2  0      
 19 18  1  0      
 20 19  2  0      
 21 22  1  0      
 23 22  2  0      
 22 25  1  0      
 24 23  1  0      
M  END

>  <RackCode>
HYCPK72334

>  <Cat. No.>
HY-107778

>  <Product Name>
PF-9366

>  <ROW>
H

>  <COLUMN>
22

>  <CAS No.>
72882-78-1

>  <MWt>
350.84

>  <Target>
Methionine Adenosyltransferase (MAT)

>  <Saltdate>
Free Base

>  <Smiles>
CN(C)CCC1=NN=C2N1C3=CC=C(Cl)C=C3C(C4=CC=CC=C4)=C2

>  <Solvent>
DMSO Solution

>  <Batch No.>
246177

>  <Quantity>
10mM  * 50uL

>  <Pathway>
Epigenetics; Metabolic Enzyme/Protease

>  <Synonyms>


>  <Formula>
C20H19ClN4

>  <Research_Area>
Cancer

>  <Clinical_Information>
No Development Reported

>  <SUPPLIER>
MedChemExpress

$$$$
Untitled Document
  ChemDraw02261612462D

 34 39  0  0  0  0  0  0  0  0999 V2000
    2.9776    1.1009    0.0000 C   0  0  0  0  0  0  0  0  0  0  0  0
    2.9776    0.2759    0.0000 C   0  0  0  0  0  0  0  0  0  0  0  0
    3.6921   -0.1366    0.0000 C   0  0  0  0  0  0  0  0  0  0  0  0
    4.4065    0.2759    0.0000 C   0  0  0  0  0  0  0  0  0  0  0  0
    4.4065    1.1009    0.0000 C   0  0  0  0  0  0  0  0  0  0  0  0
    3.6921    1.5134    0.0000 C   0  0  0  0  0  0  0  0  0  0  0  0
    2.2631    1.5134    0.0000 C   0  0  0  0  0  0  0  0  0  0  0  0
    1.5487    1.1009    0.0000 C   0  0  0  0  0  0  0  0  0  0  0  0
    1.5487    0.2759    0.0000 C   0  0  0  0  0  0  0  0  0  0  0  0
    2.2631   -0.1366    0.0000 C   0  0  0  0  0  0  0  0  0  0  0  0
    0.8367    1.5119    0.0000 C   0  0  0  0  0  0  0  0  0  0  0  0
    0.1247    1.1009    0.0000 N   0  0  0  0  0  0  0  0  0  0  0  0
    0.8367    2.3341    0.0000 O   0  0  0  0  0  0  0  0  0  0  0  0
    0.1247    0.2787    0.0000 C   0  0  0  0  0  0  0  0  0  0  0  0
   -0.5898   -0.1338    0.0000 C   0  0  0  0  0  0  0  0  0  0  0  0
   -0.5898   -0.9588    0.0000 C   0  0  0  0  0  0  0  0  0  0  0  0
    0.1247   -1.3713    0.0000 C   0  0  0  0  0  0  0  0  0  0  0  0
    0.8391   -0.9588    0.0000 C   0  0  0  0  0  0  0  0  0  0  0  0
    0.8391   -0.1338    0.0000 C   0  0  0  0  0  0  0  0  0  0  0  0
   -1.3018    0.2773    0.0000 C   0  0  0  0  0  0  0  0  0  0  0  0
   -1.3880    1.0978    0.0000 N   0  0  0  0  0  0  0  0  0  0  0  0
   -2.1950    1.2693    0.0000 C   0  0  0  0  0  0  0  0  0  0  0  0
   -2.6075    0.5548    0.0000 N   0  0  0  0  0  0  0  0  0  0  0  0
   -2.0555   -0.0583    0.0000 C   0  0  0  0  0  0  0  0  0  0  0  0
   -2.7470    1.8824    0.0000 S   0  0  0  0  0  0  0  0  0  0  0  0
   -3.5007    1.5468    0.0000 C   0  0  0  0  0  0  0  0  0  0  0  0
   -3.4145    0.7264    0.0000 C   0  0  0  0  0  0  0  0  0  0  0  0
   -4.0254    0.1763    0.0000 C   0  0  0  0  0  0  0  0  0  0  0  0
   -3.8545   -0.6279    0.0000 N   0  0  0  0  0  0  0  0  0  0  0  0
   -4.4065   -1.2410    0.0000 C   0  0  0  0  0  0  0  0  0  0  0  0
   -3.9940   -1.9555    0.0000 C   0  0  0  0  0  0  0  0  0  0  0  0
   -3.1871   -1.7840    0.0000 C   0  0  0  0  0  0  0  0  0  0  0  0
   -3.1008   -0.9635    0.0000 C   0  0  0  0  0  0  0  0  0  0  0  0
   -2.5761   -2.3341    0.0000 O   0  0  0  0  0  0  0  0  0  0  0  0
  1  2  2  0      
  2  3  1  0      
  3  4  2  0      
  4  5  1  0      
  5  6  2  0      
  6  1  1  0      
  1  7  1  0      
  7  8  2  0      
  8  9  1  0      
  9 10  2  0      
 10  2  1  0      
  8 11  1  0      
 11 12  1  0      
 11 13  2  0      
 12 14  1  0      
 14 15  2  0      
 15 16  1  0      
 16 17  2  0      
 17 18  1  0      
 18 19  2  0      
 19 14  1  0      
 15 20  1  0      
 20 21  1  0      
 21 22  2  0      
 22 23  1  0      
 23 24  1  0      
 24 20  2  0      
 22 25  1  0      
 25 26  1  0      
 26 27  2  0      
 27 23  1  0      
 27 28  1  0      
 28 29  1  0      
 29 30  1  0      
 30 31  1  0      
 31 32  1  0      
 32 33  1  0      
 33 29  1  0      
 32 34  1  6      
M  END

>  <RackCode>
HYCPK72334

>  <Cat. No.>
HY-19759

>  <Product Name>
SRT 2183

>  <ROW>
I

>  <COLUMN>
22

>  <CAS No.>
1001908-89-9

>  <MWt>
468.57

>  <Target>
Apoptosis; Sirtuin

>  <Saltdate>
Free Base

>  <Smiles>
O=C(NC1=C(C2=CN3C(SC=C3CN4CC[C@@H](O)C4)=N2)C=CC=C1)C(C=C5)=CC6=C5C=CC=C6

>  <Solvent>
DMSO Solution

>  <Batch No.>
62378

>  <Quantity>
10mM  * 50uL

>  <Pathway>
Apoptosis; Cell Cycle/DNA Damage; Epigenetics

>  <Synonyms>


>  <Formula>
C27H24N4O2S

>  <Research_Area>
Cancer

>  <Clinical_Information>
No Development Reported

>  <SUPPLIER>
MedChemExpress

$$$$
Untitled Document
  ChemDraw07082109002D

 21 23  0  0  0  0  0  0  0  0999 V2000
    0.7145   -0.2062    0.0000 N   0  0  0  0  0  0  0  0  0  0  0  0
    1.4289    0.2062    0.0000 C   0  0  0  0  0  0  0  0  0  0  0  0
    1.4289    1.0313    0.0000 N   0  0  0  0  0  0  0  0  0  0  0  0
    0.7145    1.4437    0.0000 C   0  0  0  0  0  0  0  0  0  0  0  0
    0.0000    1.0313    0.0000 C   0  0  0  0  0  0  0  0  0  0  0  0
   -0.7145    1.4437    0.0000 C   0  0  0  0  0  0  0  0  0  0  0  0
   -1.4289    1.0313    0.0000 C   0  0  0  0  0  0  0  0  0  0  0  0
   -1.4289    0.2062    0.0000 C   0  0  0  0  0  0  0  0  0  0  0  0
   -0.7145   -0.2062    0.0000 C   0  0  0  0  0  0  0  0  0  0  0  0
    0.0000    0.2062    0.0000 C   0  0  0  0  0  0  0  0  0  0  0  0
    2.1435   -0.2062    0.0000 O   0  0  0  0  0  0  0  0  0  0  0  0
    0.7145   -1.0313    0.0000 C   0  0  0  0  0  0  0  0  0  0  0  0
    1.4289   -1.4437    0.0000 C   0  0  0  0  0  0  0  0  0  0  0  0
    1.4289   -2.2688    0.0000 C   0  0  0  0  0  0  0  0  0  0  0  0
    0.7145   -2.6813    0.0000 C   0  0  0  0  0  0  0  0  0  0  0  0
    0.0000   -2.2688    0.0000 C   0  0  0  0  0  0  0  0  0  0  0  0
    0.0000   -1.4437    0.0000 C   0  0  0  0  0  0  0  0  0  0  0  0
    0.7145    2.2688    0.0000 N   0  0  0  0  0  0  0  0  0  0  0  0
    0.0000    2.6813    0.0000 C   0  0  0  0  0  0  0  0  0  0  0  0
    1.4289    2.6813    0.0000 C   0  0  0  0  0  0  0  0  0  0  0  0
   -2.1435   -0.2062    0.0000 Cl  0  0  0  0  0  0  0  0  0  0  0  0
  1  2  1  0      
  2  3  1  0      
  3  4  2  0      
  4  5  1  0      
  5  6  1  0      
  6  7  2  0      
  7  8  1  0      
  8  9  2  0      
  9 10  1  0      
  1 10  1  0      
  5 10  2  0      
  2 11  2  0      
 12 13  1  0      
 13 14  2  0      
 14 15  1  0      
 15 16  2  0      
 16 17  1  0      
 12 17  2  0      
  1 12  1  0      
 18 19  1  0      
 18 20  1  0      
  4 18  1  0      
  8 21  1  0      
M  END

>  <RackCode>
HYCPK72334

>  <Cat. No.>
HY-139139

>  <Product Name>
MAT2A inhibitor 3

>  <ROW>
J

>  <COLUMN>
22

>  <CAS No.>
2439271-82-4

>  <MWt>
299.75

>  <Target>
Methionine Adenosyltransferase (MAT)

>  <Saltdate>


>  <Smiles>
O=C1N(C2=CC=CC=C2)C3=C(C=CC(Cl)=C3)C(N(C)C)=N1

>  <Solvent>
DMSO Solution

>  <Batch No.>
113140

>  <Quantity>
10mM  * 50uL

>  <Pathway>
Epigenetics; Metabolic Enzyme/Protease

>  <Synonyms>


>  <Formula>
C16H14ClN3O

>  <Research_Area>
Cancer

>  <Clinical_Information>
No Development Reported

>  <SUPPLIER>
MedChemExpress

$$$$
Untitled Document
  ChemDraw12151616552D

 34 34  0  0  0  0  0  0  0  0999 V2000
   -0.0000    1.4236    0.0000 C   0  0  0  0  0  0  0  0  0  0  0  0
    0.6674    0.9387    0.0000 C   0  0  0  0  0  0  0  0  0  0  0  0
    1.4744    1.1102    0.0000 C   0  0  0  0  0  0  0  0  0  0  0  0
    2.0264    0.4971    0.0000 C   0  0  0  0  0  0  0  0  0  0  0  0
    1.7715   -0.2875    0.0000 C   0  0  0  0  0  0  0  0  0  0  0  0
    0.9645   -0.4590    0.0000 C   0  0  0  0  0  0  0  0  0  0  0  0
    0.4125    0.1541    0.0000 C   0  0  0  0  0  0  0  0  0  0  0  0
   -0.4125    0.1541    0.0000 C   0  0  0  0  0  0  0  0  0  0  0  0
   -0.9645   -0.4590    0.0000 C   0  0  0  0  0  0  0  0  0  0  0  0
   -1.7715   -0.2875    0.0000 C   0  0  0  0  0  0  0  0  0  0  0  0
   -2.0264    0.4971    0.0000 C   0  0  0  0  0  0  0  0  0  0  0  0
   -1.4744    1.1102    0.0000 C   0  0  0  0  0  0  0  0  0  0  0  0
   -0.6674    0.9387    0.0000 C   0  0  0  0  0  0  0  0  0  0  0  0
   -0.0000    2.2486    0.0000 O   0  0  0  0  0  0  0  0  0  0  0  0
   -2.8334    0.6687    0.0000 O   0  0  0  0  0  0  0  0  0  0  0  0
   -3.3854    0.0556    0.0000 C   0  0  0  0  0  0  0  0  0  0  0  0
   -4.1924    0.2271    0.0000 C   0  0  0  0  0  0  0  0  0  0  0  0
   -4.7445   -0.3860    0.0000 N   0  0  0  0  0  0  0  0  0  0  0  0
   -5.5514   -0.2145    0.0000 C   0  0  0  0  0  0  0  0  0  0  0  0
   -6.1035   -0.8276    0.0000 C   0  0  0  0  0  0  0  0  0  0  0  0
   -4.4895   -1.1706    0.0000 C   0  0  0  0  0  0  0  0  0  0  0  0
   -3.6825   -1.3421    0.0000 C   0  0  0  0  0  0  0  0  0  0  0  0
    2.8334    0.6687    0.0000 O   0  0  0  0  0  0  0  0  0  0  0  0
    3.3854    0.0556    0.0000 C   0  0  0  0  0  0  0  0  0  0  0  0
    4.1924    0.2271    0.0000 C   0  0  0  0  0  0  0  0  0  0  0  0
    4.7445   -0.3860    0.0000 N   0  0  0  0  0  0  0  0  0  0  0  0
    5.5514   -0.2145    0.0000 C   0  0  0  0  0  0  0  0  0  0  0  0
    6.1035   -0.8276    0.0000 C   0  0  0  0  0  0  0  0  0  0  0  0
    4.4895   -1.1706    0.0000 C   0  0  0  0  0  0  0  0  0  0  0  0
    3.6825   -1.3421    0.0000 C   0  0  0  0  0  0  0  0  0  0  0  0
   -1.4453   -1.6505    0.0000 H   0  0  0  0  0  0  0  0  0  0  0  0
   -0.6203   -1.6505    0.0000 Cl  0  0  0  0  0  0  0  0  0  0  0  0
   -1.4659   -2.2486    0.0000 H   0  0  0  0  0  0  0  0  0  0  0  0
   -0.6409   -2.2486    0.0000 Cl  0  0  0  0  0  0  0  0  0  0  0  0
  1  2  1  0      
  2  3  1  0      
  3  4  2  0      
  4  5  1  0      
  5  6  2  0      
  6  7  1  0      
  2  7  2  0      
  7  8  1  0      
  8  9  1  0      
  9 10  2  0      
 10 11  1  0      
 11 12  2  0      
 12 13  1  0      
  8 13  2  0      
  1 13  1  0      
  1 14  2  0      
 16 17  1  0      
 15 16  1  0      
 19 20  1  0      
 18 19  1  0      
 21 22  1  0      
 18 21  1  0      
 17 18  1  0      
 11 15  1  0      
 24 25  1  0      
 23 24  1  0      
 27 28  1  0      
 26 27  1  0      
 29 30  1  0      
 26 29  1  0      
 25 26  1  0      
  4 23  1  0      
 31 32  1  0      
 33 34  1  0      
M  END

>  <RackCode>
HYCPK72334

>  <Cat. No.>
HY-B1080

>  <Product Name>
Tilorone (dihydrochloride)

>  <ROW>
K

>  <COLUMN>
22

>  <CAS No.>
27591-69-1

>  <MWt>
483.47

>  <Target>
HIF/HIF Prolyl-Hydroxylase; Influenza Virus

>  <Saltdate>
Hydrochloride

>  <Smiles>
O=C1C2=C(C3=C1C=C(OCCN(CC)CC)C=C3)C=CC(OCCN(CC)CC)=C2.[H]Cl.[H]Cl

>  <Solvent>
DMSO Solution

>  <Batch No.>
22620

>  <Quantity>
10mM  * 50uL

>  <Pathway>
Anti-infection; Metabolic Enzyme/Protease

>  <Synonyms>


>  <Formula>
C25H36Cl2N2O3

>  <Research_Area>
Infection; Neurological Disease

>  <Clinical_Information>
Launched

>  <SUPPLIER>
MedChemExpress

$$$$
Untitled Document
  ChemDraw09081509232D

 46 49  0  0  0  0  0  0  0  0999 V2000
   -1.7631    1.4456    0.0000 C   0  0  0  0  0  0  0  0  0  0  0  0
   -2.4774    1.0360    0.0000 C   0  0  0  0  0  0  0  0  0  0  0  0
   -1.0488    1.0360    0.0000 C   0  0  0  0  0  0  0  0  0  0  0  0
   -3.9059    1.0360    0.0000 C   0  0  0  0  0  0  0  0  0  0  0  0
   -2.4774    0.2101    0.0000 C   0  0  0  0  0  0  0  0  0  0  0  0
   -0.4597    1.6231    0.0000 C   0  0  0  0  0  0  0  0  0  0  0  0
   -1.0488    0.2101    0.0000 N   0  0  0  0  0  0  0  0  0  0  0  0
   -3.9059    0.2101    0.0000 C   0  0  0  0  0  0  0  0  0  0  0  0
   -4.6202    1.4456    0.0000 C   0  0  0  0  0  0  0  0  0  0  0  0
   -3.1910   -0.2026    0.0000 N   0  0  0  0  0  0  0  0  0  0  0  0
   -0.7685    2.3889    0.0000 O   0  0  0  0  0  0  0  0  0  0  0  0
    0.3644    1.6231    0.0000 N   0  0  0  0  0  0  0  0  0  0  0  0
   -0.4597   -0.3782    0.0000 C   0  0  0  0  0  0  0  0  0  0  0  0
   -4.6202   -0.2026    0.0000 C   0  0  0  0  0  0  0  0  0  0  0  0
   -5.3363    1.0360    0.0000 C   0  0  0  0  0  0  0  0  0  0  0  0
   -3.1910   -1.0286    0.0000 O   0  0  0  0  0  0  0  0  0  0  0  0
    0.9546    1.0360    0.0000 C   0  0  0  0  0  0  0  0  0  0  0  0
   -0.7816   -1.1396    0.0000 O   0  0  0  0  0  0  0  0  0  0  0  0
    0.3644   -0.3782    0.0000 C   0  0  0  0  0  0  0  0  0  0  0  0
   -5.3363    0.2101    0.0000 C   0  0  0  0  0  0  0  0  0  0  0  0
   -3.9034   -1.4381    0.0000 C   0  0  0  0  0  0  0  0  0  0  0  0
    0.9546    2.2759    0.0000 C   0  0  0  0  0  0  0  0  0  0  0  0
    1.6620    1.4456    0.0000 C   0  0  0  0  0  0  0  0  0  0  0  0
    0.3644   -1.4127    0.0000 C   0  0  0  0  0  0  0  0  0  0  0  0
    0.9546    0.2101    0.0000 N   0  0  0  0  0  0  0  0  0  0  0  0
    1.6688    2.6873    0.0000 C   0  0  0  0  0  0  0  0  0  0  0  0
    0.2403    2.6873    0.0000 C   0  0  0  0  0  0  0  0  0  0  0  0
    1.6620    2.2716    0.0000 O   0  0  0  0  0  0  0  0  0  0  0  0
    2.3688    1.0360    0.0000 N   0  0  0  0  0  0  0  0  0  0  0  0
    1.0731   -1.8384    0.0000 C   0  0  0  0  0  0  0  0  0  0  0  0
    1.6620   -0.2026    0.0000 C   0  0  0  0  0  0  0  0  0  0  0  0
    2.3763    2.2616    0.0000 C   0  0  0  0  0  0  0  0  0  0  0  0
    2.3688    0.2101    0.0000 C   0  0  0  0  0  0  0  0  0  0  0  0
    3.0744    1.4456    0.0000 C   0  0  0  0  0  0  0  0  0  0  0  0
    1.7861   -1.4257    0.0000 C   0  0  0  0  0  0  0  0  0  0  0  0
    1.6620   -1.0286    0.0000 O   0  0  0  0  0  0  0  0  0  0  0  0
    3.0744   -0.2026    0.0000 C   0  0  0  0  0  0  0  0  0  0  0  0
    3.7849    1.0360    0.0000 C   0  0  0  0  0  0  0  0  0  0  0  0
    2.4948   -1.8483    0.0000 C   0  0  0  0  0  0  0  0  0  0  0  0
    3.7849    0.2101    0.0000 C   0  0  0  0  0  0  0  0  0  0  0  0
    3.2078   -1.4369    0.0000 C   0  0  0  0  0  0  0  0  0  0  0  0
    3.9146   -1.8614    0.0000 C   0  0  0  0  0  0  0  0  0  0  0  0
    4.6289   -1.4499    0.0000 C   0  0  0  0  0  0  0  0  0  0  0  0
    3.9146   -2.6873    0.0000 O   0  0  0  0  0  0  0  0  0  0  0  0
    5.3363   -1.8725    0.0000 C   0  0  0  0  0  0  0  0  0  0  0  0
    2.3688   -0.6140    0.0000 H   0  0  0  0  0  0  0  0  0  0  0  0
  1  2  1  0      
  3  1  1  1      
  2  4  1  0      
  2  5  2  0      
  3  6  1  0      
  3  7  1  0      
  4  8  2  0      
  4  9  1  0      
  5 10  1  0      
  6 11  2  0      
  6 12  1  0      
  7 13  1  0      
  8 10  1  0      
  8 14  1  0      
  9 15  2  0      
 10 16  1  0      
 12 17  1  0      
 13 18  2  0      
 13 19  1  0      
 14 20  2  0      
 15 20  1  0      
 16 21  1  0      
 17 22  1  0      
 17 23  1  0      
 19 24  1  1      
 19 25  1  0      
 22 26  1  0      
 22 27  1  1      
 23 28  2  0      
 23 29  1  0      
 24 30  1  0      
 25 31  1  0      
 26 32  1  0      
 29 33  1  0      
 29 34  1  0      
 30 35  1  0      
 31 33  1  0      
 31 36  2  0      
 33 37  1  0      
 33 46  1  1      
 34 38  1  0      
 35 39  1  0      
 37 40  1  0      
 38 40  1  0      
 39 41  1  0      
 41 42  1  0      
 42 43  1  0      
 42 44  2  0      
 43 45  1  0      
M  END

>  <RackCode>
HYCPK72334

>  <Cat. No.>
HY-N6735

>  <Product Name>
Apicidin

>  <ROW>
L

>  <COLUMN>
22

>  <CAS No.>
183506-66-3

>  <MWt>
623.78

>  <Target>
HDAC; Parasite

>  <Saltdate>
Free Base

>  <Smiles>
O=C(NC(C(N1[C@]2([H])CCCC1)=O)[C@@H](C)CC)[C@@H](NC([C@@H](NC2=O)CCCCCC(CC)=O)=O)CC3=CN(OC)C4=C3C=CC=C4

>  <Solvent>
DMSO Solution

>  <Batch No.>
486324

>  <Quantity>
10mM  * 50uL

>  <Pathway>
Anti-infection; Cell Cycle/DNA Damage; Epigenetics

>  <Synonyms>
OSI 2040

>  <Formula>
C34H49N5O6

>  <Research_Area>
Cancer; Infection

>  <Clinical_Information>
No Development Reported

>  <SUPPLIER>
MedChemExpress

$$$$
Untitled Document
  ChemDraw12191617222D

 21 23  0  0  0  0  0  0  0  0999 V2000
    1.0717    0.2062    0.0000 C   0  0  0  0  0  0  0  0  0  0  0  0
    1.0717   -0.6187    0.0000 C   0  0  0  0  0  0  0  0  0  0  0  0
    0.3572   -1.0313    0.0000 C   0  0  0  0  0  0  0  0  0  0  0  0
   -0.3572   -0.6187    0.0000 C   0  0  0  0  0  0  0  0  0  0  0  0
   -0.3572    0.2062    0.0000 C   0  0  0  0  0  0  0  0  0  0  0  0
    0.3572    0.6188    0.0000 O   0  0  0  0  0  0  0  0  0  0  0  0
   -1.0717    0.6188    0.0000 C   0  0  0  0  0  0  0  0  0  0  0  0
   -1.7862    0.2062    0.0000 C   0  0  0  0  0  0  0  0  0  0  0  0
   -1.7862   -0.6187    0.0000 C   0  0  0  0  0  0  0  0  0  0  0  0
   -1.0717   -1.0313    0.0000 C   0  0  0  0  0  0  0  0  0  0  0  0
    0.3572   -1.8563    0.0000 O   0  0  0  0  0  0  0  0  0  0  0  0
    1.7862    0.6188    0.0000 C   0  0  0  0  0  0  0  0  0  0  0  0
    1.7862    1.4438    0.0000 C   0  0  0  0  0  0  0  0  0  0  0  0
    2.5006    1.8563    0.0000 C   0  0  0  0  0  0  0  0  0  0  0  0
    3.2151    1.4438    0.0000 C   0  0  0  0  0  0  0  0  0  0  0  0
    3.2151    0.6188    0.0000 C   0  0  0  0  0  0  0  0  0  0  0  0
    2.5006    0.2062    0.0000 C   0  0  0  0  0  0  0  0  0  0  0  0
   -2.5006   -1.0313    0.0000 O   0  0  0  0  0  0  0  0  0  0  0  0
   -3.2151   -0.6187    0.0000 C   0  0  0  0  0  0  0  0  0  0  0  0
   -2.5006    0.6188    0.0000 O   0  0  0  0  0  0  0  0  0  0  0  0
   -1.0717   -1.8563    0.0000 O   0  0  0  0  0  0  0  0  0  0  0  0
  1  2  2  0      
  2  3  1  0      
  3  4  1  0      
  4  5  1  0      
  5  6  1  0      
  1  6  1  0      
  7  8  1  0      
  8  9  2  0      
  9 10  1  0      
  4 10  2  0      
  5  7  2  0      
  3 11  2  0      
 12 13  1  0      
 13 14  2  0      
 14 15  1  0      
 15 16  2  0      
 16 17  1  0      
 12 17  2  0      
  1 12  1  0      
 18 19  1  0      
  9 18  1  0      
  8 20  1  0      
 10 21  1  0      
M  END

>  <RackCode>
HYCPK72334

>  <Cat. No.>
HY-N0560

>  <Product Name>
Oroxylin A

>  <ROW>
M

>  <COLUMN>
22

>  <CAS No.>
480-11-5

>  <MWt>
284.26

>  <Target>
Autophagy; HIF/HIF Prolyl-Hydroxylase; Virus Protease

>  <Saltdate>
Free Base

>  <Smiles>
O=C1C=C(C2=CC=CC=C2)OC3=CC(O)=C(OC)C(O)=C13

>  <Solvent>
DMSO Solution

>  <Batch No.>
65230

>  <Quantity>
10mM  * 50uL

>  <Pathway>
Anti-infection; Autophagy; Metabolic Enzyme/Protease

>  <Synonyms>
Baicalein 6-methyl ether; 6-Methoxybaicalein

>  <Formula>
C16H12O5

>  <Research_Area>
Cancer

>  <Clinical_Information>
No Development Reported

>  <SUPPLIER>
MedChemExpress

$$$$
Untitled Document
  ChemDraw04281810052D

 30 34  0  0  0  0  0  0  0  0999 V2000
    0.2711    0.0669    0.0000 C   0  0  0  0  0  0  0  0  0  0  0  0
   -0.4433   -0.3456    0.0000 N   0  0  0  0  0  0  0  0  0  0  0  0
   -1.1578    0.0669    0.0000 C   0  0  0  0  0  0  0  0  0  0  0  0
   -1.1578    0.8919    0.0000 C   0  0  0  0  0  0  0  0  0  0  0  0
   -0.4433    1.3044    0.0000 C   0  0  0  0  0  0  0  0  0  0  0  0
    0.2711    0.8919    0.0000 N   0  0  0  0  0  0  0  0  0  0  0  0
    1.0558    1.1468    0.0000 N   0  0  0  0  0  0  0  0  0  0  0  0
    1.5407    0.4794    0.0000 C   0  0  0  0  0  0  0  0  0  0  0  0
    1.0558   -0.1880    0.0000 C   0  0  0  0  0  0  0  0  0  0  0  0
   -0.4433    2.1294    0.0000 O   0  0  0  0  0  0  0  0  0  0  0  0
    1.3107   -0.9727    0.0000 N   0  0  0  0  0  0  0  0  0  0  0  0
    2.1177   -1.1442    0.0000 C   0  0  0  0  0  0  0  0  0  0  0  0
    2.3726   -1.9288    0.0000 C   0  0  0  0  0  0  0  0  0  0  0  0
    1.8206   -2.5419    0.0000 C   0  0  0  0  0  0  0  0  0  0  0  0
    1.0136   -2.3704    0.0000 C   0  0  0  0  0  0  0  0  0  0  0  0
    0.7587   -1.5858    0.0000 C   0  0  0  0  0  0  0  0  0  0  0  0
    2.3657    0.4794    0.0000 C   0  0  0  0  0  0  0  0  0  0  0  0
    2.7782    1.1939    0.0000 C   0  0  0  0  0  0  0  0  0  0  0  0
    3.6032    1.1939    0.0000 C   0  0  0  0  0  0  0  0  0  0  0  0
    4.0157    0.4794    0.0000 C   0  0  0  0  0  0  0  0  0  0  0  0
    3.6032   -0.2351    0.0000 C   0  0  0  0  0  0  0  0  0  0  0  0
    2.7782   -0.2351    0.0000 C   0  0  0  0  0  0  0  0  0  0  0  0
   -1.8723   -0.3456    0.0000 C   0  0  0  0  0  0  0  0  0  0  0  0
   -1.8723    1.3044    0.0000 C   0  0  0  0  0  0  0  0  0  0  0  0
   -2.5867    0.8919    0.0000 C   0  0  0  0  0  0  0  0  0  0  0  0
   -3.3012    1.3044    0.0000 C   0  0  0  0  0  0  0  0  0  0  0  0
   -3.3012    2.1294    0.0000 C   0  0  0  0  0  0  0  0  0  0  0  0
   -2.5867    2.5419    0.0000 C   0  0  0  0  0  0  0  0  0  0  0  0
   -1.8723    2.1294    0.0000 C   0  0  0  0  0  0  0  0  0  0  0  0
   -4.0157    2.5419    0.0000 O   0  0  0  0  0  0  0  0  0  0  0  0
  1  2  1  0      
  2  3  1  0      
  3  4  2  0      
  4  5  1  0      
  5  6  1  0      
  1  6  1  0      
  7  8  2  0      
  8  9  1  0      
  7  6  1  0      
  9  1  2  0      
  5 10  2  0      
 11 12  1  0      
 12 13  1  0      
 13 14  1  0      
 14 15  1  0      
 15 16  1  0      
 11 16  1  0      
  9 11  1  0      
 17 18  1  0      
 18 19  2  0      
 19 20  1  0      
 20 21  2  0      
 21 22  1  0      
 17 22  2  0      
  8 17  1  0      
  3 23  1  0      
 24 25  1  0      
 25 26  2  0      
 26 27  1  0      
 27 28  2  0      
 28 29  1  0      
 24 29  2  0      
 27 30  1  0      
  4 24  1  0      
M  END

>  <RackCode>
HYCPK72334

>  <Cat. No.>
HY-112130

>  <Product Name>
AGI-24512

>  <ROW>
N

>  <COLUMN>
22

>  <CAS No.>
2201066-53-5

>  <MWt>
400.47

>  <Target>
Methionine Adenosyltransferase (MAT)

>  <Saltdate>
Free Base

>  <Smiles>
O=C1C(C2=CC=C(O)C=C2)=C(C)NC3=C(N4CCCCC4)C(C5=CC=CC=C5)=NN13

>  <Solvent>
DMSO Solution

>  <Batch No.>
37485

>  <Quantity>
10mM  * 50uL

>  <Pathway>
Epigenetics; Metabolic Enzyme/Protease

>  <Synonyms>


>  <Formula>
C24H24N4O2

>  <Research_Area>
Cancer

>  <Clinical_Information>
No Development Reported

>  <SUPPLIER>
MedChemExpress

$$$$
Untitled Document
  ChemDraw02281910172D

 21 23  0  0  0  0  0  0  0  0999 V2000
    1.8659    1.0313    0.0000 C   0  0  0  0  0  0  0  0  0  0  0  0
    1.1514    1.4437    0.0000 C   0  0  0  0  0  0  0  0  0  0  0  0
    1.8659    0.2062    0.0000 N   0  0  0  0  0  0  0  0  0  0  0  0
    0.4369    1.0313    0.0000 N   0  0  0  0  0  0  0  0  0  0  0  0
    0.4369    0.2062    0.0000 C   0  0  0  0  0  0  0  0  0  0  0  0
    1.1514   -0.2062    0.0000 C   0  0  0  0  0  0  0  0  0  0  0  0
    2.6505    1.2862    0.0000 C   0  0  0  0  0  0  0  0  0  0  0  0
    3.1354    0.6187    0.0000 C   0  0  0  0  0  0  0  0  0  0  0  0
    2.6505   -0.0487    0.0000 C   0  0  0  0  0  0  0  0  0  0  0  0
    1.1514    2.2688    0.0000 O   0  0  0  0  0  0  0  0  0  0  0  0
    2.9054   -0.8333    0.0000 C   0  0  0  0  0  0  0  0  0  0  0  0
   -0.2775   -0.2062    0.0000 C   0  0  0  0  0  0  0  0  0  0  0  0
   -0.2775   -1.0313    0.0000 C   0  0  0  0  0  0  0  0  0  0  0  0
   -0.9920   -1.4438    0.0000 C   0  0  0  0  0  0  0  0  0  0  0  0
   -1.7065   -1.0313    0.0000 C   0  0  0  0  0  0  0  0  0  0  0  0
   -1.7065   -0.2062    0.0000 C   0  0  0  0  0  0  0  0  0  0  0  0
   -0.9920    0.2062    0.0000 C   0  0  0  0  0  0  0  0  0  0  0  0
   -2.4210   -1.4438    0.0000 C   0  0  0  0  0  0  0  0  0  0  0  0
   -2.4210   -2.2688    0.0000 C   0  0  0  0  0  0  0  0  0  0  0  0
   -3.1354   -1.0313    0.0000 C   0  0  0  0  0  0  0  0  0  0  0  0
   -3.1354   -1.8563    0.0000 O   0  0  0  0  0  0  0  0  0  0  0  0
  1  2  1  0      
  1  3  1  0      
  2  4  1  0      
  4  5  1  0      
  5  6  2  0      
  3  6  1  0      
  7  8  1  0      
  8  9  2  0      
  3  9  1  0      
  1  7  2  0      
  2 10  2  0      
  9 11  1  0      
 12 13  1  0      
 13 14  2  0      
 14 15  1  0      
 15 16  2  0      
 16 17  1  0      
 12 17  2  0      
 18 19  1  0      
 18 20  1  0      
 18 21  1  0      
 15 18  1  0      
  5 12  1  0      
M  END

>  <RackCode>
HYCPK72334

>  <Cat. No.>
HY-123851

>  <Product Name>
MSC2504877

>  <ROW>
O

>  <COLUMN>
22

>  <CAS No.>
1460286-21-8

>  <MWt>
282.34

>  <Target>
PARP

>  <Saltdate>


>  <Smiles>
O=C1C2=CC=C(C)N2C=C(C3=CC=C(C(C)(O)C)C=C3)N1

>  <Solvent>
DMSO Solution

>  <Batch No.>
255955

>  <Quantity>
10mM  * 50uL

>  <Pathway>
Cell Cycle/DNA Damage; Epigenetics

>  <Synonyms>
M2912

>  <Formula>
C17H18N2O2

>  <Research_Area>
Cancer

>  <Clinical_Information>
No Development Reported

>  <SUPPLIER>
MedChemExpress

$$$$
Untitled Document
  ChemDraw01051913542D

 21 23  0  0  0  0  0  0  0  0999 V2000
    2.4334   -1.9433    0.0000 N   0  0  0  0  0  0  0  0  0  0  0  0
    2.1785   -1.1587    0.0000 C   0  0  0  0  0  0  0  0  0  0  0  0
    1.9235   -0.3741    0.0000 C   0  0  0  0  0  0  0  0  0  0  0  0
    1.1389   -0.1192    0.0000 C   0  0  0  0  0  0  0  0  0  0  0  0
    0.4245   -0.5317    0.0000 N   0  0  0  0  0  0  0  0  0  0  0  0
   -0.2900   -0.1192    0.0000 C   0  0  0  0  0  0  0  0  0  0  0  0
   -1.0045   -0.5317    0.0000 C   0  0  0  0  0  0  0  0  0  0  0  0
   -1.0045   -1.3567    0.0000 C   0  0  0  0  0  0  0  0  0  0  0  0
   -0.2900   -1.7692    0.0000 C   0  0  0  0  0  0  0  0  0  0  0  0
   -1.7190   -1.7692    0.0000 C   0  0  0  0  0  0  0  0  0  0  0  0
   -2.4334   -1.3567    0.0000 C   0  0  0  0  0  0  0  0  0  0  0  0
   -2.4334   -0.5317    0.0000 C   0  0  0  0  0  0  0  0  0  0  0  0
   -1.7190   -0.1192    0.0000 C   0  0  0  0  0  0  0  0  0  0  0  0
   -0.2900    0.7058    0.0000 C   0  0  0  0  0  0  0  0  0  0  0  0
   -1.0045    1.1183    0.0000 C   0  0  0  0  0  0  0  0  0  0  0  0
   -1.7190    0.7058    0.0000 C   0  0  0  0  0  0  0  0  0  0  0  0
    0.4245    1.1183    0.0000 C   0  0  0  0  0  0  0  0  0  0  0  0
    0.4245    1.9433    0.0000 O   0  0  0  0  0  0  0  0  0  0  0  0
    1.1389    0.7058    0.0000 N   0  0  0  0  0  0  0  0  0  0  0  0
    1.9235    0.9608    0.0000 N   0  0  0  0  0  0  0  0  0  0  0  0
    2.4085    0.2933    0.0000 C   0  0  0  0  0  0  0  0  0  0  0  0
  1  2  3  0      
  2  3  1  0      
  3  4  2  0      
  4  5  1  0      
  5  6  1  0      
  6  7  1  0      
  7  8  2  0      
  8  9  1  0      
  8 10  1  0      
 10 11  2  0      
 11 12  1  0      
 12 13  2  0      
  7 13  1  0      
  6 14  2  0      
 14 15  1  0      
 15 16  1  0      
 14 17  1  0      
 17 18  2  0      
  4 19  1  0      
 17 19  1  0      
 19 20  1  0      
 20 21  2  0      
  3 21  1  0      
M  END

>  <RackCode>
HYCPK72334

>  <Cat. No.>
HY-123419

>  <Product Name>
CPI-4203

>  <ROW>
P

>  <COLUMN>
22

>  <CAS No.>
1628214-07-2

>  <MWt>
278.31

>  <Target>
Histone Demethylase

>  <Saltdate>


>  <Smiles>
N#CC1=C(N2N=C1)NC(C3=C(C=CC=C3)C)=C(C2=O)CC

>  <Solvent>
DMSO Solution

>  <Batch No.>
284730

>  <Quantity>
10mM  * 50uL

>  <Pathway>
Epigenetics

>  <Synonyms>


>  <Formula>
C16H14N4O

>  <Research_Area>
Cancer

>  <Clinical_Information>
No Development Reported

>  <SUPPLIER>
MedChemExpress

$$$$
Untitled Document
  ChemDraw05111709552D

 27 30  0  0  0  0  0  0  0  0999 V2000
    2.5006   -0.8250    0.0000 N   0  0  0  0  0  0  0  0  0  0  0  0
    3.2151   -1.2375    0.0000 C   0  0  0  0  0  0  0  0  0  0  0  0
    3.2151   -2.0625    0.0000 C   0  0  0  0  0  0  0  0  0  0  0  0
    2.5006   -2.4750    0.0000 C   0  0  0  0  0  0  0  0  0  0  0  0
    1.7862   -2.0625    0.0000 C   0  0  0  0  0  0  0  0  0  0  0  0
    1.0717   -2.4750    0.0000 C   0  0  0  0  0  0  0  0  0  0  0  0
    0.3572   -2.0625    0.0000 C   0  0  0  0  0  0  0  0  0  0  0  0
    0.3572   -1.2375    0.0000 C   0  0  0  0  0  0  0  0  0  0  0  0
    1.0717   -0.8250    0.0000 C   0  0  0  0  0  0  0  0  0  0  0  0
    1.7862   -1.2375    0.0000 C   0  0  0  0  0  0  0  0  0  0  0  0
    1.0717    0.0000    0.0000 O   0  0  0  0  0  0  0  0  0  0  0  0
   -0.3572   -0.8250    0.0000 C   0  0  0  0  0  0  0  0  0  0  0  0
   -1.0717   -1.2375    0.0000 N   0  0  0  0  0  0  0  0  0  0  0  0
   -1.7862   -0.8250    0.0000 C   0  0  0  0  0  0  0  0  0  0  0  0
   -2.5006   -1.2375    0.0000 C   0  0  0  0  0  0  0  0  0  0  0  0
   -3.2151   -0.8250    0.0000 C   0  0  0  0  0  0  0  0  0  0  0  0
   -3.2151    0.0000    0.0000 C   0  0  0  0  0  0  0  0  0  0  0  0
   -2.5006    0.4125    0.0000 C   0  0  0  0  0  0  0  0  0  0  0  0
   -1.7862    0.0000    0.0000 N   0  0  0  0  0  0  0  0  0  0  0  0
   -2.5006   -2.0625    0.0000 O   0  0  0  0  0  0  0  0  0  0  0  0
   -0.3572    0.0000    0.0000 C   0  0  0  0  0  0  0  0  0  0  0  0
   -1.0717    0.4125    0.0000 C   0  0  0  0  0  0  0  0  0  0  0  0
   -1.0717    1.2375    0.0000 C   0  0  0  0  0  0  0  0  0  0  0  0
   -0.3572    1.6500    0.0000 C   0  0  0  0  0  0  0  0  0  0  0  0
    0.3572    1.2375    0.0000 C   0  0  0  0  0  0  0  0  0  0  0  0
    0.3572    0.4125    0.0000 C   0  0  0  0  0  0  0  0  0  0  0  0
   -0.3572    2.4750    0.0000 Cl  0  0  0  0  0  0  0  0  0  0  0  0
  1  2  2  0      
  2  3  1  0      
  3  4  2  0      
  4  5  1  0      
  5  6  2  0      
  6  7  1  0      
  7  8  2  0      
  8  9  1  0      
  9 10  2  0      
  1 10  1  0      
  5 10  1  0      
  9 11  1  0      
 14 15  1  0      
 15 16  2  0      
 16 17  1  0      
 17 18  2  0      
 18 19  1  0      
 14 19  2  0      
 15 20  1  0      
 13 14  1  0      
 12 13  1  0      
 21 22  1  0      
 22 23  2  0      
 23 24  1  0      
 24 25  2  0      
 25 26  1  0      
 21 26  2  0      
 24 27  1  0      
 12 21  1  0      
  8 12  1  0      
M  END

>  <RackCode>
HYCPK72335

>  <Cat. No.>
HY-101449

>  <Product Name>
Adaptaquin

>  <ROW>
A

>  <COLUMN>
3

>  <CAS No.>
385786-48-1

>  <MWt>
377.82

>  <Target>
HIF/HIF Prolyl-Hydroxylase

>  <Saltdate>


>  <Smiles>
OC1=C2N=CC=CC2=CC=C1C(C3=CC=C(Cl)C=C3)NC4=NC=CC=C4O

>  <Solvent>
DMSO Solution

>  <Batch No.>
168196

>  <Quantity>
10mM  * 50uL

>  <Pathway>
Metabolic Enzyme/Protease

>  <Synonyms>


>  <Formula>
C21H16ClN3O2

>  <Research_Area>
Metabolic Disease

>  <Clinical_Information>
No Development Reported

>  <SUPPLIER>
MedChemExpress

$$$$
Untitled Document
  ChemDraw08161615222D

 30 33  0  0  0  0  0  0  0  0999 V2000
    1.2852    0.0000    0.0000 O   0  0  0  0  0  0  0  0  0  0  0  0
    0.8003    0.6674    0.0000 C   0  0  0  0  0  0  0  0  0  0  0  0
    0.0157    0.4125    0.0000 C   0  0  0  0  0  0  0  0  0  0  0  0
    0.0157   -0.4125    0.0000 C   0  0  0  0  0  0  0  0  0  0  0  0
    0.8003   -0.6674    0.0000 C   0  0  0  0  0  0  0  0  0  0  0  0
   -1.2539    0.0000    0.0000 O   0  0  0  0  0  0  0  0  0  0  0  0
   -0.7690    0.6674    0.0000 C   0  0  0  0  0  0  0  0  0  0  0  0
   -0.7690   -0.6674    0.0000 C   0  0  0  0  0  0  0  0  0  0  0  0
   -1.0239   -1.4521    0.0000 C   0  0  0  0  0  0  0  0  0  0  0  0
   -1.8309   -1.6236    0.0000 C   0  0  0  0  0  0  0  0  0  0  0  0
   -2.0858   -2.4082    0.0000 C   0  0  0  0  0  0  0  0  0  0  0  0
   -1.5338   -3.0213    0.0000 C   0  0  0  0  0  0  0  0  0  0  0  0
   -0.7268   -2.8498    0.0000 C   0  0  0  0  0  0  0  0  0  0  0  0
   -0.4719   -2.0652    0.0000 C   0  0  0  0  0  0  0  0  0  0  0  0
   -1.7887   -3.8059    0.0000 O   0  0  0  0  0  0  0  0  0  0  0  0
   -2.5957   -3.9775    0.0000 C   0  0  0  0  0  0  0  0  0  0  0  0
   -2.8928   -2.5797    0.0000 O   0  0  0  0  0  0  0  0  0  0  0  0
   -3.4761   -1.9964    0.0000 C   0  0  0  0  0  0  0  0  0  0  0  0
    1.0552    1.4521    0.0000 C   0  0  0  0  0  0  0  0  0  0  0  0
    1.8622    1.6236    0.0000 C   0  0  0  0  0  0  0  0  0  0  0  0
    2.1171    2.4082    0.0000 C   0  0  0  0  0  0  0  0  0  0  0  0
    1.5651    3.0213    0.0000 C   0  0  0  0  0  0  0  0  0  0  0  0
    0.7581    2.8498    0.0000 C   0  0  0  0  0  0  0  0  0  0  0  0
    0.5032    2.0652    0.0000 C   0  0  0  0  0  0  0  0  0  0  0  0
    1.8200    3.8059    0.0000 O   0  0  0  0  0  0  0  0  0  0  0  0
    2.6270    3.9775    0.0000 C   0  0  0  0  0  0  0  0  0  0  0  0
    2.9241    2.5797    0.0000 O   0  0  0  0  0  0  0  0  0  0  0  0
    3.4761    1.9666    0.0000 C   0  0  0  0  0  0  0  0  0  0  0  0
    0.0157   -1.2375    0.0000 H   0  0  0  0  0  0  0  0  0  0  0  0
    0.0157    1.2375    0.0000 H   0  0  0  0  0  0  0  0  0  0  0  0
  1  2  1  0      
  2  3  1  0      
  3  4  1  0      
  4  5  1  0      
  1  5  1  0      
  6  7  1  0      
  6  8  1  0      
  3  7  1  0      
  4  8  1  0      
  9 10  1  0      
 10 11  2  0      
 11 12  1  0      
 12 13  2  0      
 13 14  1  0      
  9 14  2  0      
 15 16  1  0      
 12 15  1  0      
 17 18  1  0      
 11 17  1  0      
  8  9  1  1      
 19 20  1  0      
 20 21  2  0      
 21 22  1  0      
 22 23  2  0      
 23 24  1  0      
 19 24  2  0      
 25 26  1  0      
 22 25  1  0      
 27 28  1  0      
 21 27  1  0      
  2 19  1  1      
  4 29  1  1      
  3 30  1  1      
M  END

>  <RackCode>
HYCPK72335

>  <Cat. No.>
HY-N2180

>  <Product Name>
Pinoresinol dimethyl ether

>  <ROW>
B

>  <COLUMN>
3

>  <CAS No.>
29106-36-3

>  <MWt>
386.44

>  <Target>
PKA; PKC

>  <Saltdate>
Free Base

>  <Smiles>
COC1=CC=C([C@H]2OC[C@]3([H])[C@@H](C4=CC=C(OC)C(OC)=C4)OC[C@@]32[H])C=C1OC

>  <Solvent>
DMSO Solution

>  <Batch No.>
322140

>  <Quantity>
10mM  * 50uL

>  <Pathway>
Epigenetics; Stem Cell/Wnt; TGF-beta/Smad

>  <Synonyms>
(+)-Eudesmin

>  <Formula>
C22H26O6

>  <Research_Area>
Neurological Disease

>  <Clinical_Information>
No Development Reported

>  <SUPPLIER>
MedChemExpress

$$$$
Untitled Document
  ChemDraw01182309192D

 35 40  0  0  0  0  0  0  0  0999 V2000
   -1.9644    0.8365    0.0000 O   0  0  0  0  0  0  0  0  0  0  0  0
   -1.2567    0.4124    0.0000 C   0  0  0  0  0  0  0  0  0  0  0  0
   -1.2701   -0.4124    0.0000 N   0  0  0  0  0  0  0  0  0  0  0  0
   -1.9911   -0.8133    0.0000 C   0  0  0  0  0  0  0  0  0  0  0  0
   -2.6988   -0.3893    0.0000 C   0  0  0  0  0  0  0  0  0  0  0  0
   -3.4199   -0.7902    0.0000 C   0  0  0  0  0  0  0  0  0  0  0  0
   -4.1276   -0.3662    0.0000 C   0  0  0  0  0  0  0  0  0  0  0  0
   -4.1142    0.4587    0.0000 C   0  0  0  0  0  0  0  0  0  0  0  0
   -3.3932    0.8596    0.0000 C   0  0  0  0  0  0  0  0  0  0  0  0
   -2.6855    0.4356    0.0000 C   0  0  0  0  0  0  0  0  0  0  0  0
   -2.0045   -1.6382    0.0000 C   0  0  0  0  0  0  0  0  0  0  0  0
   -1.2968   -2.0622    0.0000 C   0  0  0  0  0  0  0  0  0  0  0  0
   -1.3101   -2.8871    0.0000 C   0  0  0  0  0  0  0  0  0  0  0  0
   -2.0312   -3.2880    0.0000 C   0  0  0  0  0  0  0  0  0  0  0  0
   -2.7389   -2.8640    0.0000 C   0  0  0  0  0  0  0  0  0  0  0  0
   -2.7255   -2.0391    0.0000 C   0  0  0  0  0  0  0  0  0  0  0  0
   -0.5357    0.8133    0.0000 C   0  0  0  0  0  0  0  0  0  0  0  0
    0.1720    0.3893    0.0000 C   0  0  0  0  0  0  0  0  0  0  0  0
    0.8931    0.7902    0.0000 C   0  0  0  0  0  0  0  0  0  0  0  0
    0.9064    1.6151    0.0000 N   0  0  0  0  0  0  0  0  0  0  0  0
    0.1987    2.0391    0.0000 C   0  0  0  0  0  0  0  0  0  0  0  0
    0.2121    2.8640    0.0000 C   0  0  0  0  0  0  0  0  0  0  0  0
   -0.4956    3.2880    0.0000 C   0  0  0  0  0  0  0  0  0  0  0  0
   -1.2167    2.8871    0.0000 C   0  0  0  0  0  0  0  0  0  0  0  0
   -1.2300    2.0622    0.0000 C   0  0  0  0  0  0  0  0  0  0  0  0
   -0.5223    1.6382    0.0000 C   0  0  0  0  0  0  0  0  0  0  0  0
    1.6008    0.3662    0.0000 C   0  0  0  0  0  0  0  0  0  0  0  0
    2.3598    0.6895    0.0000 O   0  0  0  0  0  0  0  0  0  0  0  0
    2.9018    0.0676    0.0000 C   0  0  0  0  0  0  0  0  0  0  0  0
    3.7267    0.0542    0.0000 C   0  0  0  0  0  0  0  0  0  0  0  0
    4.1276   -0.6668    0.0000 C   0  0  0  0  0  0  0  0  0  0  0  0
    3.7036   -1.3745    0.0000 C   0  0  0  0  0  0  0  0  0  0  0  0
    2.8787   -1.3612    0.0000 C   0  0  0  0  0  0  0  0  0  0  0  0
    2.4778   -0.6401    0.0000 C   0  0  0  0  0  0  0  0  0  0  0  0
    1.6737   -0.4556    0.0000 C   0  0  0  0  0  0  0  0  0  0  0  0
  1  2  2  0      
  2  3  1  0      
  3  4  1  0      
  4  5  1  0      
  5  6  1  0      
  6  7  2  0      
  7  8  1  0      
  8  9  2  0      
  9 10  1  0      
  5 10  2  0      
  4 11  1  0      
 11 12  1  0      
 12 13  2  0      
 13 14  1  0      
 14 15  2  0      
 15 16  1  0      
 11 16  2  0      
  2 17  1  0      
 17 18  2  0      
 18 19  1  0      
 19 20  2  0      
 20 21  1  0      
 21 22  1  0      
 22 23  2  0      
 23 24  1  0      
 24 25  2  0      
 25 26  1  0      
 21 26  2  0      
 17 26  1  0      
 19 27  1  0      
 27 28  1  0      
 28 29  1  0      
 29 30  1  0      
 30 31  2  0      
 31 32  1  0      
 32 33  2  0      
 33 34  1  0      
 29 34  2  0      
 34 35  1  0      
 27 35  2  0      
M  END

>  <RackCode>
HYCPK72335

>  <Cat. No.>
HY-148712

>  <Product Name>
SIRT6 activator 12q

>  <ROW>
C

>  <COLUMN>
3

>  <CAS No.>
2601734-99-8

>  <MWt>
454.52

>  <Target>
Apoptosis; Sirtuin

>  <Saltdate>


>  <Smiles>
O=C(C1=CC(C2=CC3=C(C=CC=C3)O2)=NC4=C1C=CC=C4)NC(C5=CC=CC=C5)C6=CC=CC=C6

>  <Solvent>
DMSO Solution

>  <Batch No.>
255577

>  <Quantity>
10mM  * 50uL

>  <Pathway>
Apoptosis; Cell Cycle/DNA Damage; Epigenetics

>  <Synonyms>


>  <Formula>
C31H22N2O2

>  <Research_Area>
Cancer

>  <Clinical_Information>
No Development Reported

>  <SUPPLIER>
MedChemExpress

$$$$
Untitled Document
  ChemDraw10122214362D

  9  9  0  0  0  0  0  0  0  0999 V2000
   -0.0000    0.0000    0.0000 C   0  0  0  0  0  0  0  0  0  0  0  0
   -0.7145    0.4125    0.0000 C   0  0  0  0  0  0  0  0  0  0  0  0
   -1.4289    0.0000    0.0000 C   0  0  0  0  0  0  0  0  0  0  0  0
   -1.4289   -0.8250    0.0000 C   0  0  0  0  0  0  0  0  0  0  0  0
   -0.7145   -1.2375    0.0000 C   0  0  0  0  0  0  0  0  0  0  0  0
   -0.0000   -0.8250    0.0000 N   0  0  0  0  0  0  0  0  0  0  0  0
    0.7145    0.4125    0.0000 C   0  0  0  0  0  0  0  0  0  0  0  0
    0.7145    1.2375    0.0000 O   0  0  0  0  0  0  0  0  0  0  0  0
    1.4289    0.0000    0.0000 N   0  0  0  0  0  0  0  0  0  0  0  0
  1  2  1  0      
  2  3  2  0      
  3  4  1  0      
  4  5  2  0      
  5  6  1  0      
  1  6  2  0      
  7  8  2  0      
  7  9  1  0      
  1  7  1  0      
M  END

>  <RackCode>
HYCPK72335

>  <Cat. No.>
HY-101020

>  <Product Name>
Picolinamide

>  <ROW>
D

>  <COLUMN>
3

>  <CAS No.>
1452-77-3

>  <MWt>
122.12

>  <Target>
PARP

>  <Saltdate>


>  <Smiles>
O=C(C1=NC=CC=C1)N

>  <Solvent>
DMSO Solution

>  <Batch No.>
248534

>  <Quantity>
10mM  * 50uL

>  <Pathway>
Cell Cycle/DNA Damage; Epigenetics

>  <Synonyms>
2-Picolinamide

>  <Formula>
C6H6N2O

>  <Research_Area>
Metabolic Disease

>  <Clinical_Information>
No Development Reported

>  <SUPPLIER>
MedChemExpress

$$$$
Untitled Document
  ChemDraw05092012352D

 34 38  0  0  0  0  0  0  0  0999 V2000
   -0.6440    2.4849    0.0000 N   0  0  0  0  0  0  0  0  0  0  0  0
    0.1810    2.4849    0.0000 C   0  0  0  0  0  0  0  0  0  0  0  0
    0.5935    1.7704    0.0000 C   0  0  0  0  0  0  0  0  0  0  0  0
    0.1810    1.0560    0.0000 N   0  0  0  0  0  0  0  0  0  0  0  0
   -0.6440    1.0560    0.0000 C   0  0  0  0  0  0  0  0  0  0  0  0
   -1.0565    1.7704    0.0000 C   0  0  0  0  0  0  0  0  0  0  0  0
   -1.4690    1.0560    0.0000 C   0  0  0  0  0  0  0  0  0  0  0  0
   -2.2940    1.0560    0.0000 C   0  0  0  0  0  0  0  0  0  0  0  0
   -2.7065    1.7704    0.0000 N   0  0  0  0  0  0  0  0  0  0  0  0
   -2.2940    2.4849    0.0000 C   0  0  0  0  0  0  0  0  0  0  0  0
   -1.4690    2.4849    0.0000 C   0  0  0  0  0  0  0  0  0  0  0  0
   -4.7690    2.4849    0.0000 C   0  0  0  0  0  0  0  0  0  0  0  0
   -3.9440    2.4849    0.0000 C   0  0  0  0  0  0  0  0  0  0  0  0
   -3.5315    1.7704    0.0000 C   0  0  0  0  0  0  0  0  0  0  0  0
   -3.9440    1.0560    0.0000 C   0  0  0  0  0  0  0  0  0  0  0  0
   -4.7690    1.0560    0.0000 C   0  0  0  0  0  0  0  0  0  0  0  0
   -5.1815    1.7704    0.0000 N   0  0  0  0  0  0  0  0  0  0  0  0
   -5.1815    3.1994    0.0000 C   0  0  0  0  0  0  0  0  0  0  0  0
   -1.0565    3.1994    0.0000 C   0  0  0  0  0  0  0  0  0  0  0  0
    0.2580   -0.4122    0.0000 O   0  0  0  0  0  0  0  0  0  0  0  0
    0.8711   -0.9642    0.0000 N   0  0  0  0  0  0  0  0  0  0  0  0
    1.5856   -0.5517    0.0000 C   0  0  0  0  0  0  0  0  0  0  0  0
    1.4140    0.2552    0.0000 N   0  0  0  0  0  0  0  0  0  0  0  0
    0.5935    0.3415    0.0000 C   0  0  0  0  0  0  0  0  0  0  0  0
    2.3392   -0.8873    0.0000 C   0  0  0  0  0  0  0  0  0  0  0  0
    2.4255   -1.7078    0.0000 C   0  0  0  0  0  0  0  0  0  0  0  0
    3.1791   -2.0433    0.0000 C   0  0  0  0  0  0  0  0  0  0  0  0
    3.8466   -1.5584    0.0000 C   0  0  0  0  0  0  0  0  0  0  0  0
    3.7603   -0.7379    0.0000 C   0  0  0  0  0  0  0  0  0  0  0  0
    3.0067   -0.4024    0.0000 C   0  0  0  0  0  0  0  0  0  0  0  0
    4.4278   -0.2530    0.0000 O   0  0  0  0  0  0  0  0  0  0  0  0
    5.1815   -0.5886    0.0000 C   0  0  0  0  0  0  0  0  0  0  0  0
    3.2654   -2.8638    0.0000 O   0  0  0  0  0  0  0  0  0  0  0  0
    4.0190   -3.1994    0.0000 C   0  0  0  0  0  0  0  0  0  0  0  0
  1  2  1  0      
  2  3  1  0      
  3  4  1  0      
  4  5  1  0      
  5  6  1  0      
  6  7  1  0      
  7  8  1  0      
  8  9  1  0      
  9 10  1  0      
 10 11  1  0      
  1  6  1  0      
 11  6  1  0      
 12 13  1  0      
 13 14  2  0      
 14 15  1  0      
 15 16  2  0      
 16 17  1  0      
 12 17  2  0      
 12 18  1  0      
  9 14  1  0      
  1 19  1  0      
 20 21  1  0      
 21 22  2  0      
 22 23  1  0      
 23 24  2  0      
 20 24  1  0      
 25 26  1  0      
 26 27  2  0      
 27 28  1  0      
 28 29  2  0      
 29 30  1  0      
 25 30  2  0      
 31 32  1  0      
 29 31  1  0      
 33 34  1  0      
 27 33  1  0      
 22 25  1  0      
  4 24  1  0      
M  END

>  <RackCode>
HYCPK72335

>  <Cat. No.>
HY-114209

>  <Product Name>
MRK-740

>  <ROW>
E

>  <COLUMN>
3

>  <CAS No.>
2387510-80-5

>  <MWt>
464.56

>  <Target>
Histone Methyltransferase

>  <Saltdate>


>  <Smiles>
CC1=NC=CC(N(CC2)CCC32CN(C4=NC(C5=CC(OC)=CC(OC)=C5)=NO4)CCN3C)=C1

>  <Solvent>
DMSO Solution

>  <Batch No.>
109475

>  <Quantity>
10mM  * 50uL

>  <Pathway>
Epigenetics

>  <Synonyms>


>  <Formula>
C25H32N6O3

>  <Research_Area>
Cancer

>  <Clinical_Information>
No Development Reported

>  <SUPPLIER>
MedChemExpress

$$$$
Untitled Document
  ChemDraw10081815092D

 23 25  0  0  0  0  0  0  0  0999 V2000
    3.2507    0.1050    0.0000 C   0  0  0  0  0  0  0  0  0  0  0  0
    2.5363   -0.3075    0.0000 C   0  0  0  0  0  0  0  0  0  0  0  0
    1.8218    0.1050    0.0000 C   0  0  0  0  0  0  0  0  0  0  0  0
    1.1073   -0.3075    0.0000 C   0  0  0  0  0  0  0  0  0  0  0  0
    1.1073   -1.1325    0.0000 C   0  0  0  0  0  0  0  0  0  0  0  0
    1.8218   -1.5450    0.0000 C   0  0  0  0  0  0  0  0  0  0  0  0
    2.5363   -1.1325    0.0000 C   0  0  0  0  0  0  0  0  0  0  0  0
    3.2507    0.9300    0.0000 O   0  0  0  0  0  0  0  0  0  0  0  0
    3.9652   -0.3075    0.0000 N   0  0  0  0  0  0  0  0  0  0  0  0
   -0.9128    0.3826    0.0000 N   0  0  0  0  0  0  0  0  0  0  0  0
   -0.5003    1.0970    0.0000 N   0  0  0  0  0  0  0  0  0  0  0  0
    0.3066    0.9255    0.0000 N   0  0  0  0  0  0  0  0  0  0  0  0
    0.3929    0.1050    0.0000 C   0  0  0  0  0  0  0  0  0  0  0  0
   -0.3608   -0.2305    0.0000 C   0  0  0  0  0  0  0  0  0  0  0  0
   -1.7333    0.2963    0.0000 C   0  0  0  0  0  0  0  0  0  0  0  0
   -2.2182    0.9638    0.0000 S   0  0  0  0  0  0  0  0  0  0  0  0
   -3.0387    0.8775    0.0000 C   0  0  0  0  0  0  0  0  0  0  0  0
   -3.3743    0.1239    0.0000 C   0  0  0  0  0  0  0  0  0  0  0  0
   -4.1948    0.0376    0.0000 C   0  0  0  0  0  0  0  0  0  0  0  0
   -4.6797    0.7051    0.0000 C   0  0  0  0  0  0  0  0  0  0  0  0
   -4.3441    1.4587    0.0000 C   0  0  0  0  0  0  0  0  0  0  0  0
   -3.5237    1.5450    0.0000 C   0  0  0  0  0  0  0  0  0  0  0  0
    4.6797    0.1050    0.0000 O   0  0  0  0  0  0  0  0  0  0  0  0
  1  2  1  0      
  2  3  1  0      
  3  4  2  0      
  4  5  1  0      
  5  6  2  0      
  6  7  1  0      
  2  7  2  0      
  1  8  2  0      
  1  9  1  0      
 10 11  1  0      
 11 12  2  0      
 12 13  1  0      
 13 14  2  0      
 10 14  1  0      
 17 18  1  0      
 18 19  2  0      
 19 20  1  0      
 20 21  2  0      
 21 22  1  0      
 17 22  2  0      
 16 17  1  0      
 15 16  1  0      
 10 15  1  0      
  4 13  1  0      
  9 23  1  0      
M  END

>  <RackCode>
HYCPK72335

>  <Cat. No.>
HY-117348

>  <Product Name>
NCC-149

>  <ROW>
F

>  <COLUMN>
3

>  <CAS No.>
1316652-41-1

>  <MWt>
326.37

>  <Target>
HDAC

>  <Saltdate>


>  <Smiles>
O=C(NO)C1=CC=CC(C2=CN(CSC3=CC=CC=C3)N=N2)=C1

>  <Solvent>
DMSO Solution

>  <Batch No.>
275531

>  <Quantity>
10mM  * 50uL

>  <Pathway>
Cell Cycle/DNA Damage; Epigenetics

>  <Synonyms>


>  <Formula>
C16H14N4O2S

>  <Research_Area>
Neurological Disease

>  <Clinical_Information>
No Development Reported

>  <SUPPLIER>
MedChemExpress

$$$$
Untitled Document
  ChemDraw06281614462D

 26 28  0  0  0  0  0  0  0  0999 V2000
    2.1877    0.2898    0.0000 C   0  0  0  0  0  0  0  0  0  0  0  0
    2.1877    1.1148    0.0000 C   0  0  0  0  0  0  0  0  0  0  0  0
    2.9022    1.5273    0.0000 C   0  0  0  0  0  0  0  0  0  0  0  0
    3.6166    1.1148    0.0000 C   0  0  0  0  0  0  0  0  0  0  0  0
    3.6166    0.2898    0.0000 C   0  0  0  0  0  0  0  0  0  0  0  0
    2.9022   -0.1227    0.0000 C   0  0  0  0  0  0  0  0  0  0  0  0
    1.4733   -0.1227    0.0000 S   0  0  0  0  0  0  0  0  0  0  0  0
    1.8857   -0.8372    0.0000 O   0  0  0  0  0  0  0  0  0  0  0  0
    1.0608    0.5917    0.0000 O   0  0  0  0  0  0  0  0  0  0  0  0
    0.7589   -0.5352    0.0000 N   0  0  0  0  0  0  0  0  0  0  0  0
    4.3311    1.5273    0.0000 O   0  0  0  0  0  0  0  0  0  0  0  0
    5.0455    1.1148    0.0000 C   0  0  0  0  0  0  0  0  0  0  0  0
    0.0444   -0.1227    0.0000 C   0  0  0  0  0  0  0  0  0  0  0  0
    0.0444    0.7023    0.0000 C   0  0  0  0  0  0  0  0  0  0  0  0
   -0.6701    1.1148    0.0000 C   0  0  0  0  0  0  0  0  0  0  0  0
   -1.3846    0.7023    0.0000 C   0  0  0  0  0  0  0  0  0  0  0  0
   -1.3846   -0.1227    0.0000 C   0  0  0  0  0  0  0  0  0  0  0  0
   -0.6701   -0.5352    0.0000 C   0  0  0  0  0  0  0  0  0  0  0  0
    0.7589    1.1148    0.0000 C   0  0  0  0  0  0  0  0  0  0  0  0
   -2.1852   -1.3557    0.0000 C   0  0  0  0  0  0  0  0  0  0  0  0
   -2.0989   -0.5352    0.0000 C   0  0  0  0  0  0  0  0  0  0  0  0
   -2.8526   -0.1997    0.0000 C   0  0  0  0  0  0  0  0  0  0  0  0
   -3.4046   -0.8128    0.0000 C   0  0  0  0  0  0  0  0  0  0  0  0
   -2.9921   -1.5273    0.0000 S   0  0  0  0  0  0  0  0  0  0  0  0
   -4.2251   -0.7265    0.0000 C   0  0  0  0  0  0  0  0  0  0  0  0
   -5.0455   -0.6403    0.0000 N   0  0  0  0  0  0  0  0  0  0  0  0
  1  2  1  0      
  2  3  2  0      
  3  4  1  0      
  4  5  2  0      
  5  6  1  0      
  1  6  2  0      
  7  8  2  0      
  7  9  2  0      
  7 10  1  0      
  1  7  1  0      
 11 12  1  0      
  4 11  1  0      
 13 14  1  0      
 14 15  2  0      
 15 16  1  0      
 16 17  2  0      
 17 18  1  0      
 13 18  2  0      
 14 19  1  0      
 20 21  2  0      
 21 22  1  0      
 22 23  2  0      
 23 24  1  0      
 20 24  1  0      
 25 26  3  0      
 23 25  1  0      
 17 21  1  0      
 10 13  1  0      
M  END

>  <RackCode>
HYCPK72335

>  <Cat. No.>
HY-16187

>  <Product Name>
EL-102

>  <ROW>
G

>  <COLUMN>
3

>  <CAS No.>
1233948-61-2

>  <MWt>
384.47

>  <Target>
Apoptosis; HIF/HIF Prolyl-Hydroxylase

>  <Saltdate>
Free Base

>  <Smiles>
O=S(C1=CC=C(OC)C=C1)(NC2=CC(C3=CSC(C#N)=C3)=CC=C2C)=O

>  <Solvent>
DMSO Solution

>  <Batch No.>
20756

>  <Quantity>
10mM  * 50uL

>  <Pathway>
Apoptosis; Metabolic Enzyme/Protease

>  <Synonyms>


>  <Formula>
C19H16N2O3S2

>  <Research_Area>
Cancer

>  <Clinical_Information>
No Development Reported

>  <SUPPLIER>
MedChemExpress

$$$$
Untitled Document
  ChemDraw08011614512D

 38 41  0  0  0  0  0  0  0  0999 V2000
   -1.2193    0.0202    0.0000 N   0  0  0  0  0  0  0  0  0  0  0  0
   -0.7344   -0.6473    0.0000 C   0  0  0  0  0  0  0  0  0  0  0  0
   -1.2193   -1.3147    0.0000 N   0  0  0  0  0  0  0  0  0  0  0  0
   -2.0039   -1.0598    0.0000 C   0  0  0  0  0  0  0  0  0  0  0  0
   -2.0039   -0.2348    0.0000 C   0  0  0  0  0  0  0  0  0  0  0  0
   -2.7183   -1.4723    0.0000 C   0  0  0  0  0  0  0  0  0  0  0  0
   -3.4328   -1.0598    0.0000 C   0  0  0  0  0  0  0  0  0  0  0  0
   -3.4328   -0.2348    0.0000 C   0  0  0  0  0  0  0  0  0  0  0  0
   -2.7183    0.1777    0.0000 C   0  0  0  0  0  0  0  0  0  0  0  0
    0.0906   -0.6473    0.0000 C   0  0  0  0  0  0  0  0  0  0  0  0
    0.5031    0.0672    0.0000 C   0  0  0  0  0  0  0  0  0  0  0  0
    1.3281    0.0672    0.0000 C   0  0  0  0  0  0  0  0  0  0  0  0
    1.7406    0.7816    0.0000 C   0  0  0  0  0  0  0  0  0  0  0  0
    2.5655    0.7816    0.0000 C   0  0  0  0  0  0  0  0  0  0  0  0
    2.9780    0.0672    0.0000 C   0  0  0  0  0  0  0  0  0  0  0  0
    2.5655   -0.6473    0.0000 C   0  0  0  0  0  0  0  0  0  0  0  0
    1.7406   -0.6473    0.0000 C   0  0  0  0  0  0  0  0  0  0  0  0
    3.8030    0.0672    0.0000 O   0  0  0  0  0  0  0  0  0  0  0  0
    4.2155   -0.6473    0.0000 C   0  0  0  0  0  0  0  0  0  0  0  0
    5.0405   -0.6473    0.0000 C   0  0  0  0  0  0  0  0  0  0  0  0
    5.4530   -1.3617    0.0000 C   0  0  0  0  0  0  0  0  0  0  0  0
   -0.9644    0.8047    0.0000 C   0  0  0  0  0  0  0  0  0  0  0  0
   -0.1574    0.9762    0.0000 C   0  0  0  0  0  0  0  0  0  0  0  0
    0.0975    1.7608    0.0000 N   0  0  0  0  0  0  0  0  0  0  0  0
   -0.4545    2.3739    0.0000 C   0  0  0  0  0  0  0  0  0  0  0  0
   -0.1996    3.1586    0.0000 C   0  0  0  0  0  0  0  0  0  0  0  0
    0.6074    3.3301    0.0000 O   0  0  0  0  0  0  0  0  0  0  0  0
    1.1594    2.7170    0.0000 C   0  0  0  0  0  0  0  0  0  0  0  0
    0.9045    1.9324    0.0000 C   0  0  0  0  0  0  0  0  0  0  0  0
   -5.0405   -2.4643    0.0000 O   0  0  0  0  0  0  0  0  0  0  0  0
   -5.4530   -1.7498    0.0000 N   0  0  0  0  0  0  0  0  0  0  0  0
   -4.9010   -1.1367    0.0000 C   0  0  0  0  0  0  0  0  0  0  0  0
   -4.1473   -1.4723    0.0000 C   0  0  0  0  0  0  0  0  0  0  0  0
   -4.2335   -2.2928    0.0000 C   0  0  0  0  0  0  0  0  0  0  0  0
   -5.0725   -0.3297    0.0000 C   0  0  0  0  0  0  0  0  0  0  0  0
   -3.6204   -2.8448    0.0000 C   0  0  0  0  0  0  0  0  0  0  0  0
   -0.7192   -3.3301    0.0000 Cl  0  0  0  0  0  0  0  0  0  0  0  0
   -1.5414   -3.3301    0.0000 H   0  0  0  0  0  0  0  0  0  0  0  0
  1  2  1  0      
  2  3  2  0      
  3  4  1  0      
  4  5  1  0      
  1  5  1  0      
  6  7  1  0      
  7  8  2  0      
  8  9  1  0      
  5  9  2  0      
  4  6  2  0      
 10 11  1  0      
 12 13  1  0      
 13 14  2  0      
 14 15  1  0      
 15 16  2  0      
 16 17  1  0      
 12 17  2  0      
 19 20  1  0      
 20 21  1  0      
 18 19  1  0      
 15 18  1  0      
 11 12  1  0      
  2 10  1  0      
 22 23  1  0      
 24 25  1  0      
 25 26  1  0      
 26 27  1  0      
 27 28  1  0      
 28 29  1  0      
 24 29  1  0      
 23 24  1  0      
  1 22  1  0      
 30 31  1  0      
 31 32  2  0      
 32 33  1  0      
 33 34  2  0      
 30 34  1  0      
 32 35  1  0      
 34 36  1  0      
  7 33  1  0      
 37 38  1  0      
M  END

>  <RackCode>
HYCPK72335

>  <Cat. No.>
HY-19999A

>  <Product Name>
PF-CBP1 hydrochloride

>  <ROW>
H

>  <COLUMN>
3

>  <CAS No.>
2070014-93-4

>  <MWt>
525.08

>  <Target>
Epigenetic Reader Domain; Histone Acetyltransferase

>  <Saltdate>
Hydrochloride

>  <Smiles>
CCCOC1=CC=C(CCC2=NC3=CC(C4=C(C)ON=C4C)=CC=C3N2CCN5CCOCC5)C=C1.Cl[H]

>  <Solvent>
DMSO Solution

>  <Batch No.>
20331

>  <Quantity>
10mM  * 50uL

>  <Pathway>
Epigenetics

>  <Synonyms>


>  <Formula>
C29H37ClN4O3

>  <Research_Area>
Neurological Disease

>  <Clinical_Information>
No Development Reported

>  <SUPPLIER>
MedChemExpress

$$$$
Untitled Document
  ChemDraw10092214252D

 27 29  0  0  0  0  0  0  0  0999 V2000
    0.5285   -0.0732    0.0000 C   0  0  0  0  0  0  0  0  0  0  0  0
   -0.1860   -0.4857    0.0000 C   0  0  0  0  0  0  0  0  0  0  0  0
   -0.9005   -0.0732    0.0000 C   0  0  0  0  0  0  0  0  0  0  0  0
   -1.6149   -0.4857    0.0000 C   0  0  0  0  0  0  0  0  0  0  0  0
   -1.6149   -1.3107    0.0000 C   0  0  0  0  0  0  0  0  0  0  0  0
   -0.9005   -1.7232    0.0000 C   0  0  0  0  0  0  0  0  0  0  0  0
   -0.1860   -1.3107    0.0000 C   0  0  0  0  0  0  0  0  0  0  0  0
    0.5285    0.7518    0.0000 O   0  0  0  0  0  0  0  0  0  0  0  0
    1.2429   -0.4857    0.0000 N   0  0  0  0  0  0  0  0  0  0  0  0
   -2.3293   -0.0732    0.0000 S   0  0  0  0  0  0  0  0  0  0  0  0
   -1.9169    0.6413    0.0000 O   0  0  0  0  0  0  0  0  0  0  0  0
   -2.7418   -0.7876    0.0000 O   0  0  0  0  0  0  0  0  0  0  0  0
   -3.0438    0.3393    0.0000 N   0  0  0  0  0  0  0  0  0  0  0  0
   -3.7254   -0.1254    0.0000 C   0  0  0  0  0  0  0  0  0  0  0  0
   -4.5138    0.1178    0.0000 C   0  0  0  0  0  0  0  0  0  0  0  0
   -4.8152    0.8857    0.0000 C   0  0  0  0  0  0  0  0  0  0  0  0
   -4.4027    1.6002    0.0000 C   0  0  0  0  0  0  0  0  0  0  0  0
   -3.5869    1.7232    0.0000 C   0  0  0  0  0  0  0  0  0  0  0  0
   -2.9821    1.1620    0.0000 C   0  0  0  0  0  0  0  0  0  0  0  0
    1.9574   -0.0732    0.0000 C   0  0  0  0  0  0  0  0  0  0  0  0
    2.6718   -0.4857    0.0000 C   0  0  0  0  0  0  0  0  0  0  0  0
    3.3862   -0.0732    0.0000 C   0  0  0  0  0  0  0  0  0  0  0  0
    4.1007   -0.4857    0.0000 C   0  0  0  0  0  0  0  0  0  0  0  0
    4.1007   -1.3107    0.0000 C   0  0  0  0  0  0  0  0  0  0  0  0
    3.3862   -1.7232    0.0000 C   0  0  0  0  0  0  0  0  0  0  0  0
    2.6718   -1.3107    0.0000 C   0  0  0  0  0  0  0  0  0  0  0  0
    4.8152   -0.0732    0.0000 Cl  0  0  0  0  0  0  0  0  0  0  0  0
  1  2  1  0      
  2  3  1  0      
  3  4  2  0      
  4  5  1  0      
  5  6  2  0      
  6  7  1  0      
  2  7  2  0      
  1  8  2  0      
  1  9  1  0      
 10 11  2  0      
 10 12  2  0      
 13 14  1  0      
 14 15  1  0      
 15 16  1  0      
 16 17  1  0      
 17 18  1  0      
 18 19  1  0      
 13 19  1  0      
 10 13  1  0      
  4 10  1  0      
 21 22  1  0      
 22 23  2  0      
 23 24  1  0      
 24 25  2  0      
 25 26  1  0      
 21 26  2  0      
 23 27  1  0      
 20 21  1  0      
  9 20  1  0      
M  END

>  <RackCode>
HYCPK72335

>  <Cat. No.>
HY-47822

>  <Product Name>
WAY-354574

>  <ROW>
I

>  <COLUMN>
3

>  <CAS No.>
851873-40-0

>  <MWt>
406.93

>  <Target>
Sirtuin

>  <Saltdate>


>  <Smiles>
O=C(NCC1=CC=CC(Cl)=C1)C2=CC=CC(S(=O)(N3CCCCCC3)=O)=C2

>  <Solvent>
DMSO Solution

>  <Batch No.>
320670

>  <Quantity>
10mM  * 50uL

>  <Pathway>
Cell Cycle/DNA Damage; Epigenetics

>  <Synonyms>


>  <Formula>
C20H23ClN2O3S

>  <Research_Area>
Neurological Disease

>  <Clinical_Information>
No Development Reported

>  <SUPPLIER>
MedChemExpress

$$$$
Untitled Document
  ChemDraw11171615362D

 22 24  0  0  0  0  0  0  0  0999 V2000
   -1.0727   -0.4118    0.0000 C   0  0  0  0  0  0  0  0  0  0  0  0
   -1.7867   -0.8250    0.0000 C   0  0  0  0  0  0  0  0  0  0  0  0
   -2.5015   -0.4132    0.0000 C   0  0  0  0  0  0  0  0  0  0  0  0
   -3.2162   -0.8264    0.0000 C   0  0  0  0  0  0  0  0  0  0  0  0
   -3.2155   -1.6512    0.0000 C   0  0  0  0  0  0  0  0  0  0  0  0
   -2.5000   -2.0631    0.0000 C   0  0  0  0  0  0  0  0  0  0  0  0
   -1.7859   -1.6499    0.0000 N   0  0  0  0  0  0  0  0  0  0  0  0
   -1.0734    0.4131    0.0000 C   0  0  0  0  0  0  0  0  0  0  0  0
   -0.3593    0.8263    0.0000 C   0  0  0  0  0  0  0  0  0  0  0  0
   -0.3600    1.6512    0.0000 C   0  0  0  0  0  0  0  0  0  0  0  0
   -1.0749    2.0631    0.0000 C   0  0  0  0  0  0  0  0  0  0  0  0
   -1.7889    1.6499    0.0000 C   0  0  0  0  0  0  0  0  0  0  0  0
   -1.7882    0.8250    0.0000 C   0  0  0  0  0  0  0  0  0  0  0  0
   -0.3578   -0.8237    0.0000 N   0  0  0  0  0  0  0  0  0  0  0  0
    0.3563   -0.4105    0.0000 N   0  0  0  0  0  0  0  0  0  0  0  0
    1.0712   -0.8224    0.0000 C   0  0  0  0  0  0  0  0  0  0  0  0
    1.0719   -1.6472    0.0000 C   0  0  0  0  0  0  0  0  0  0  0  0
    1.7867   -2.0591    0.0000 C   0  0  0  0  0  0  0  0  0  0  0  0
    2.5008   -1.6459    0.0000 C   0  0  0  0  0  0  0  0  0  0  0  0
    2.5000   -0.8210    0.0000 C   0  0  0  0  0  0  0  0  0  0  0  0
    1.7852   -0.4092    0.0000 N   0  0  0  0  0  0  0  0  0  0  0  0
    3.2162   -2.0578    0.0000 Cl  0  0  0  0  0  0  0  0  0  0  0  0
  2  3  1  0      
  3  4  2  0      
  4  5  1  0      
  5  6  2  0      
  6  7  1  0      
  2  7  2  0      
  1  2  1  0      
  8  9  1  0      
  9 10  2  0      
 10 11  1  0      
 11 12  2  0      
 12 13  1  0      
  8 13  2  0      
  1  8  1  0      
 14 15  1  0      
 16 17  1  0      
 17 18  2  0      
 18 19  1  0      
 19 20  2  0      
 20 21  1  0      
 16 21  2  0      
 19 22  1  0      
 15 16  1  0      
  1 14  2  0      
M  END

>  <RackCode>
HYCPK72335

>  <Cat. No.>
HY-13953

>  <Product Name>
JIB-04

>  <ROW>
J

>  <COLUMN>
3

>  <CAS No.>
199596-05-9

>  <MWt>
308.76492

>  <Target>
Apoptosis; Histone Demethylase

>  <Saltdate>
Free Base

>  <Smiles>
ClC1=CN=C(N/N=C(C2=CC=CC=C2)/C3=NC=CC=C3)C=C1

>  <Solvent>
DMSO Solution

>  <Batch No.>
118505

>  <Quantity>
10mM  * 50uL

>  <Pathway>
Apoptosis; Epigenetics

>  <Synonyms>


>  <Formula>
C17H13ClN4

>  <Research_Area>
Cancer

>  <Clinical_Information>
No Development Reported

>  <SUPPLIER>
MedChemExpress

$$$$
Untitled Document
  ChemDraw03221916442D

 38 39  0  0  0  0  0  0  0  0999 V2000
   -3.9296   -0.6187    0.0000 C   0  0  0  0  0  0  0  0  0  0  0  0
   -4.6441   -1.0313    0.0000 C   0  0  0  0  0  0  0  0  0  0  0  0
   -5.3585   -0.6187    0.0000 C   0  0  0  0  0  0  0  0  0  0  0  0
   -6.0730   -1.0313    0.0000 C   0  0  0  0  0  0  0  0  0  0  0  0
   -6.0730   -1.8563    0.0000 C   0  0  0  0  0  0  0  0  0  0  0  0
   -5.3585   -2.2688    0.0000 C   0  0  0  0  0  0  0  0  0  0  0  0
   -4.6441   -1.8563    0.0000 C   0  0  0  0  0  0  0  0  0  0  0  0
   -3.9296    0.2062    0.0000 O   0  0  0  0  0  0  0  0  0  0  0  0
   -3.2151   -1.0313    0.0000 N   0  0  0  0  0  0  0  0  0  0  0  0
   -3.9296   -2.2688    0.0000 C   0  0  0  0  0  0  0  0  0  0  0  0
   -3.2151   -1.8563    0.0000 C   0  0  0  0  0  0  0  0  0  0  0  0
   -2.5007   -2.2688    0.0000 C   0  0  0  0  0  0  0  0  0  0  0  0
   -1.7862   -1.8563    0.0000 C   0  0  0  0  0  0  0  0  0  0  0  0
   -1.0717   -2.2688    0.0000 C   0  0  0  0  0  0  0  0  0  0  0  0
   -0.3572   -1.8563    0.0000 C   0  0  0  0  0  0  0  0  0  0  0  0
    0.3572   -2.2688    0.0000 C   0  0  0  0  0  0  0  0  0  0  0  0
    1.0717   -1.8563    0.0000 C   0  0  0  0  0  0  0  0  0  0  0  0
    1.7862   -2.2688    0.0000 C   0  0  0  0  0  0  0  0  0  0  0  0
    2.5006   -1.8563    0.0000 C   0  0  0  0  0  0  0  0  0  0  0  0
    3.2151   -2.2688    0.0000 C   0  0  0  0  0  0  0  0  0  0  0  0
    3.9296   -1.8563    0.0000 C   0  0  0  0  0  0  0  0  0  0  0  0
    4.6441   -2.2688    0.0000 C   0  0  0  0  0  0  0  0  0  0  0  0
    5.3585   -1.8563    0.0000 C   0  0  0  0  0  0  0  0  0  0  0  0
    6.0730   -2.2688    0.0000 C   0  0  0  0  0  0  0  0  0  0  0  0
   -5.3585    0.2062    0.0000 O   0  0  0  0  0  0  0  0  0  0  0  0
   -6.0730    0.6187    0.0000 C   0  0  0  0  0  0  0  0  0  0  0  0
   -6.0730    1.4438    0.0000 C   0  0  0  0  0  0  0  0  0  0  0  0
   -2.5007   -0.6187    0.0000 C   0  0  0  0  0  0  0  0  0  0  0  0
   -2.5007    0.2062    0.0000 C   0  0  0  0  0  0  0  0  0  0  0  0
   -1.7862    0.6187    0.0000 C   0  0  0  0  0  0  0  0  0  0  0  0
   -1.0717    0.2062    0.0000 C   0  0  0  0  0  0  0  0  0  0  0  0
   -1.0717   -0.6187    0.0000 C   0  0  0  0  0  0  0  0  0  0  0  0
   -1.7862   -1.0313    0.0000 C   0  0  0  0  0  0  0  0  0  0  0  0
   -1.7862    1.4438    0.0000 C   0  0  0  0  0  0  0  0  0  0  0  0
   -1.7862    2.2688    0.0000 F   0  0  0  0  0  0  0  0  0  0  0  0
   -2.5007    1.8563    0.0000 F   0  0  0  0  0  0  0  0  0  0  0  0
   -1.0717    1.8563    0.0000 F   0  0  0  0  0  0  0  0  0  0  0  0
   -0.3572    0.6187    0.0000 Cl  0  0  0  0  0  0  0  0  0  0  0  0
  1  2  1  0      
  2  3  1  0      
  3  4  2  0      
  4  5  1  0      
  5  6  2  0      
  6  7  1  0      
  2  7  2  0      
  1  8  2  0      
  1  9  1  0      
 10 11  1  0      
 11 12  1  0      
 12 13  1  0      
 13 14  1  0      
 14 15  1  0      
 15 16  1  0      
 16 17  1  0      
 17 18  1  0      
 18 19  1  0      
 19 20  1  0      
 20 21  1  0      
 21 22  1  0      
 22 23  1  0      
 23 24  1  0      
  7 10  1  0      
 26 27  1  0      
 25 26  1  0      
  3 25  1  0      
 28 29  1  0      
 29 30  2  0      
 30 31  1  0      
 31 32  2  0      
 32 33  1  0      
 28 33  2  0      
 34 35  1  0      
 34 36  1  0      
 34 37  1  0      
 30 34  1  0      
 31 38  1  0      
  9 28  1  0      
M  END

>  <RackCode>
HYCPK72335

>  <Cat. No.>
HY-124960

>  <Product Name>
CTPB

>  <ROW>
K

>  <COLUMN>
3

>  <CAS No.>
586976-24-1

>  <MWt>
554.13

>  <Target>
Histone Acetyltransferase

>  <Saltdate>
Free Base

>  <Smiles>
O=C(NC1=CC=C(Cl)C(C(F)(F)F)=C1)C2=C(CCCCCCCCCCCCCCC)C=CC=C2OCC

>  <Solvent>
DMSO Solution

>  <Batch No.>
85058

>  <Quantity>
10mM  * 50uL

>  <Pathway>
Epigenetics

>  <Synonyms>


>  <Formula>
C31H43ClF3NO2

>  <Research_Area>
Cancer

>  <Clinical_Information>
No Development Reported

>  <SUPPLIER>
MedChemExpress

$$$$
Untitled Document
  ChemDraw12132317202D

 41 44  0  0  0  0  0  0  0  0999 V2000
   -2.5005   -1.6499    0.0000 N   0  0  0  0  0  0  0  0  0  0  0  0
   -3.2150   -2.0624    0.0000 C   0  0  0  0  0  0  0  0  0  0  0  0
   -3.9295   -1.6499    0.0000 C   0  0  0  0  0  0  0  0  0  0  0  0
   -4.6440   -2.0624    0.0000 C   0  0  0  0  0  0  0  0  0  0  0  0
   -4.6440   -2.8874    0.0000 C   0  0  0  0  0  0  0  0  0  0  0  0
   -3.9295   -3.2999    0.0000 C   0  0  0  0  0  0  0  0  0  0  0  0
   -3.2150   -2.8874    0.0000 C   0  0  0  0  0  0  0  0  0  0  0  0
   -3.9295   -0.8250    0.0000 N   0  0  0  0  0  0  0  0  0  0  0  0
   -3.2150   -0.4125    0.0000 C   0  0  0  0  0  0  0  0  0  0  0  0
   -3.2150    0.4125    0.0000 C   0  0  0  0  0  0  0  0  0  0  0  0
   -3.9295    0.8250    0.0000 C   0  0  0  0  0  0  0  0  0  0  0  0
   -3.9295    1.6500    0.0000 C   0  0  0  0  0  0  0  0  0  0  0  0
   -3.2150    2.0624    0.0000 C   0  0  0  0  0  0  0  0  0  0  0  0
   -2.5005    1.6500    0.0000 C   0  0  0  0  0  0  0  0  0  0  0  0
   -2.5005    0.8250    0.0000 C   0  0  0  0  0  0  0  0  0  0  0  0
   -3.2150    2.8874    0.0000 C   0  0  0  0  0  0  0  0  0  0  0  0
   -2.5005    3.2999    0.0000 N   0  0  0  0  0  0  0  0  0  0  0  0
   -1.7861    2.8874    0.0000 C   0  0  0  0  0  0  0  0  0  0  0  0
   -1.0717    3.2999    0.0000 O   0  0  0  0  0  0  0  0  0  0  0  0
   -0.3572    2.8874    0.0000 C   0  0  0  0  0  0  0  0  0  0  0  0
   -0.3572    2.0624    0.0000 C   0  0  0  0  0  0  0  0  0  0  0  0
    0.3572    1.6500    0.0000 C   0  0  0  0  0  0  0  0  0  0  0  0
    1.0717    2.0624    0.0000 N   0  0  0  0  0  0  0  0  0  0  0  0
    1.0717    2.8874    0.0000 C   0  0  0  0  0  0  0  0  0  0  0  0
    0.3572    3.2999    0.0000 C   0  0  0  0  0  0  0  0  0  0  0  0
    1.7861    1.6500    0.0000 S   0  0  0  0  0  0  0  0  0  0  0  0
    2.1986    2.3644    0.0000 O   0  0  0  0  0  0  0  0  0  0  0  0
    2.5005    1.2375    0.0000 C   0  0  0  0  0  0  0  0  0  0  0  0
    2.5005    0.4125    0.0000 C   0  0  0  0  0  0  0  0  0  0  0  0
    3.2150    0.0000    0.0000 C   0  0  0  0  0  0  0  0  0  0  0  0
    3.2150   -0.8250    0.0000 F   0  0  0  0  0  0  0  0  0  0  0  0
    3.9295    0.4125    0.0000 C   0  0  0  0  0  0  0  0  0  0  0  0
    3.9295    1.2375    0.0000 C   0  0  0  0  0  0  0  0  0  0  0  0
    4.6440    1.6500    0.0000 F   0  0  0  0  0  0  0  0  0  0  0  0
    3.2150    1.6500    0.0000 C   0  0  0  0  0  0  0  0  0  0  0  0
    3.2150    2.4749    0.0000 F   0  0  0  0  0  0  0  0  0  0  0  0
    4.6440    0.0000    0.0000 F   0  0  0  0  0  0  0  0  0  0  0  0
    1.7861    0.0000    0.0000 F   0  0  0  0  0  0  0  0  0  0  0  0
    1.3737    0.9355    0.0000 O   0  0  0  0  0  0  0  0  0  0  0  0
   -1.7861    2.0624    0.0000 O   0  0  0  0  0  0  0  0  0  0  0  0
   -2.5005   -0.8250    0.0000 O   0  0  0  0  0  0  0  0  0  0  0  0
  1  2  1  0      
  2  3  2  0      
  3  4  1  0      
  4  5  2  0      
  5  6  1  0      
  6  7  2  0      
  2  7  1  0      
  3  8  1  0      
  8  9  1  0      
  9 10  1  0      
 10 11  2  0      
 11 12  1  0      
 12 13  2  0      
 13 14  1  0      
 14 15  2  0      
 10 15  1  0      
 13 16  1  0      
 16 17  1  0      
 17 18  1  0      
 18 19  1  0      
 19 20  1  0      
 20 21  1  0      
 21 22  1  0      
 22 23  1  0      
 23 24  1  0      
 24 25  1  0      
 20 25  1  0      
 23 26  1  0      
 26 27  2  0      
 26 28  1  0      
 28 29  2  0      
 29 30  1  0      
 30 31  1  0      
 30 32  2  0      
 32 33  1  0      
 33 34  1  0      
 33 35  2  0      
 28 35  1  0      
 35 36  1  0      
 32 37  1  0      
 29 38  1  0      
 26 39  2  0      
 18 40  2  0      
  9 41  2  0      
M  END

>  <RackCode>
HYCPK72335

>  <Cat. No.>
HY-161050

>  <Product Name>
YSR734

>  <ROW>
L

>  <COLUMN>
3

>  <CAS No.>
3032969-58-4

>  <MWt>
598.54

>  <Target>
Apoptosis; HDAC

>  <Saltdate>


>  <Smiles>
NC1=C(NC(C2=CC=C(CNC(OC3CCN(S(=O)(C4=C(F)C(F)=C(F)C(F)=C4F)=O)CC3)=O)C=C2)=O)C=CC=C1

>  <Solvent>
DMSO Solution

>  <Batch No.>
405700

>  <Quantity>
10mM  * 50uL

>  <Pathway>
Apoptosis; Cell Cycle/DNA Damage; Epigenetics

>  <Synonyms>


>  <Formula>
C26H23F5N4O5S

>  <Research_Area>
Cancer

>  <Clinical_Information>
No Development Reported

>  <SUPPLIER>
MedChemExpress

$$$$
Untitled Document
  ChemDraw05072215112D

 34 37  0  0  0  0  0  0  0  0999 V2000
   -2.0391   -0.7563    0.0000 C   0  0  0  0  0  0  0  0  0  0  0  0
   -2.0391   -1.5812    0.0000 O   0  0  0  0  0  0  0  0  0  0  0  0
    1.3737    0.0687    0.0000 C   0  0  0  0  0  0  0  0  0  0  0  0
    0.8888   -0.5987    0.0000 N   0  0  0  0  0  0  0  0  0  0  0  0
    0.1041   -0.3438    0.0000 C   0  0  0  0  0  0  0  0  0  0  0  0
    0.1041    0.4813    0.0000 C   0  0  0  0  0  0  0  0  0  0  0  0
    0.8888    0.7362    0.0000 N   0  0  0  0  0  0  0  0  0  0  0  0
   -0.6103   -0.7563    0.0000 C   0  0  0  0  0  0  0  0  0  0  0  0
   -1.3248   -0.3438    0.0000 C   0  0  0  0  0  0  0  0  0  0  0  0
   -1.3248    0.4813    0.0000 C   0  0  0  0  0  0  0  0  0  0  0  0
   -0.6103    0.8938    0.0000 C   0  0  0  0  0  0  0  0  0  0  0  0
    1.1437    1.5208    0.0000 C   0  0  0  0  0  0  0  0  0  0  0  0
   -0.6103    1.7187    0.0000 O   0  0  0  0  0  0  0  0  0  0  0  0
   -1.3248    2.1311    0.0000 C   0  0  0  0  0  0  0  0  0  0  0  0
    3.4680   -0.3438    0.0000 C   0  0  0  0  0  0  0  0  0  0  0  0
    3.4680    0.4813    0.0000 C   0  0  0  0  0  0  0  0  0  0  0  0
    4.1825    0.8938    0.0000 C   0  0  0  0  0  0  0  0  0  0  0  0
    4.8970    0.4813    0.0000 C   0  0  0  0  0  0  0  0  0  0  0  0
    4.8970   -0.3438    0.0000 C   0  0  0  0  0  0  0  0  0  0  0  0
    4.1825   -0.7563    0.0000 N   0  0  0  0  0  0  0  0  0  0  0  0
    2.6834   -0.5987    0.0000 N   0  0  0  0  0  0  0  0  0  0  0  0
    2.6834    0.7362    0.0000 C   0  0  0  0  0  0  0  0  0  0  0  0
    2.1985    0.0687    0.0000 C   0  0  0  0  0  0  0  0  0  0  0  0
    2.4285   -1.3832    0.0000 C   0  0  0  0  0  0  0  0  0  0  0  0
    1.6217   -1.5547    0.0000 C   0  0  0  0  0  0  0  0  0  0  0  0
   -2.7536   -0.3438    0.0000 N   0  0  0  0  0  0  0  0  0  0  0  0
   -3.4680   -0.7563    0.0000 C   0  0  0  0  0  0  0  0  0  0  0  0
   -4.1825   -0.3438    0.0000 C   0  0  0  0  0  0  0  0  0  0  0  0
   -4.1825    0.4813    0.0000 C   0  0  0  0  0  0  0  0  0  0  0  0
   -3.4680    0.8938    0.0000 C   0  0  0  0  0  0  0  0  0  0  0  0
   -2.7536    0.4813    0.0000 C   0  0  0  0  0  0  0  0  0  0  0  0
   -4.8970   -0.7563    0.0000 N   0  0  0  0  0  0  0  0  0  0  0  0
   -0.5944   -2.1311    0.0000 H   0  0  0  0  0  0  0  0  0  0  0  0
    0.2306   -2.1311    0.0000 Cl  0  0  0  0  0  0  0  0  0  0  0  0
  1  2  2  0      
  3  4  2  0      
  4  5  1  0      
  5  6  1  0      
  6  7  1  0      
  3  7  1  0      
  8  9  1  0      
  9 10  2  0      
 10 11  1  0      
  6 11  2  0      
  5  8  2  0      
  7 12  1  0      
 13 14  1  0      
 11 13  1  0      
 15 16  1  0      
 16 17  2  0      
 17 18  1  0      
 18 19  2  0      
 19 20  1  0      
 15 20  2  0      
 22 23  2  0      
 21 23  1  0      
 15 21  1  0      
 16 22  1  0      
 24 25  1  0      
 21 24  1  0      
  3 23  1  0      
  1  9  1  0      
 26 27  1  0      
 27 28  1  0      
 28 29  1  0      
 29 30  1  0      
 30 31  1  0      
 26 31  1  0      
 28 32  1  6      
  1 26  1  0      
 33 34  1  0      
M  END

>  <RackCode>
HYCPK72335

>  <Cat. No.>
HY-103058

>  <Product Name>
GSK199

>  <ROW>
M

>  <COLUMN>
3

>  <CAS No.>
1549811-53-1

>  <MWt>
468.98

>  <Target>
Protein Arginine Deiminase

>  <Saltdate>
Hydrochloride

>  <Smiles>
O=C(N1C[C@H](N)CCC1)C2=CC(OC)=C3C(N=C(C4=CC5=CC=CN=C5N4CC)N3C)=C2.[H]Cl

>  <Solvent>
DMSO Solution

>  <Batch No.>
291211

>  <Quantity>
10mM  * 50uL

>  <Pathway>
Epigenetics

>  <Synonyms>


>  <Formula>
C24H29ClN6O2

>  <Research_Area>
Cancer; Inflammation/Immunology; Cardiovascular Disease

>  <Clinical_Information>
No Development Reported

>  <SUPPLIER>
MedChemExpress

$$$$
Untitled Document
  ChemDraw07042213052D

 32 35  0  0  0  0  0  0  0  0999 V2000
    3.5723    2.0624    0.0000 N   0  0  0  0  0  0  0  0  0  0  0  0
    4.2867    1.6500    0.0000 C   0  0  0  0  0  0  0  0  0  0  0  0
    4.2867    0.8250    0.0000 C   0  0  0  0  0  0  0  0  0  0  0  0
    3.5723    0.4125    0.0000 C   0  0  0  0  0  0  0  0  0  0  0  0
    2.8578    0.8250    0.0000 C   0  0  0  0  0  0  0  0  0  0  0  0
    2.1433    0.4125    0.0000 C   0  0  0  0  0  0  0  0  0  0  0  0
    1.4289    0.8250    0.0000 C   0  0  0  0  0  0  0  0  0  0  0  0
    1.4289    1.6500    0.0000 C   0  0  0  0  0  0  0  0  0  0  0  0
    2.1433    2.0624    0.0000 C   0  0  0  0  0  0  0  0  0  0  0  0
    2.8578    1.6500    0.0000 C   0  0  0  0  0  0  0  0  0  0  0  0
    3.5723   -0.4125    0.0000 N   0  0  0  0  0  0  0  0  0  0  0  0
    0.7145    0.4125    0.0000 N   0  0  0  0  0  0  0  0  0  0  0  0
    5.0012    2.0624    0.0000 C   0  0  0  0  0  0  0  0  0  0  0  0
   -1.4289    0.8250    0.0000 C   0  0  0  0  0  0  0  0  0  0  0  0
   -0.7145    0.4125    0.0000 N   0  0  0  0  0  0  0  0  0  0  0  0
   -0.0000    0.8250    0.0000 C   0  0  0  0  0  0  0  0  0  0  0  0
   -0.0000    1.6500    0.0000 C   0  0  0  0  0  0  0  0  0  0  0  0
   -0.7145    2.0624    0.0000 C   0  0  0  0  0  0  0  0  0  0  0  0
   -1.4289    1.6500    0.0000 N   0  0  0  0  0  0  0  0  0  0  0  0
   -2.1433    0.4125    0.0000 C   0  0  0  0  0  0  0  0  0  0  0  0
   -2.8578    0.8250    0.0000 C   0  0  0  0  0  0  0  0  0  0  0  0
   -3.5723    0.4125    0.0000 C   0  0  0  0  0  0  0  0  0  0  0  0
   -3.5723   -0.4125    0.0000 C   0  0  0  0  0  0  0  0  0  0  0  0
   -2.8578   -0.8250    0.0000 C   0  0  0  0  0  0  0  0  0  0  0  0
   -2.1433   -0.4125    0.0000 C   0  0  0  0  0  0  0  0  0  0  0  0
   -2.8578   -1.6500    0.0000 O   0  0  0  0  0  0  0  0  0  0  0  0
   -3.5723   -2.0624    0.0000 C   0  0  0  0  0  0  0  0  0  0  0  0
   -4.2867   -0.8250    0.0000 O   0  0  0  0  0  0  0  0  0  0  0  0
   -5.0012   -0.4125    0.0000 C   0  0  0  0  0  0  0  0  0  0  0  0
   -4.2867    0.8250    0.0000 O   0  0  0  0  0  0  0  0  0  0  0  0
   -5.0012    0.4125    0.0000 C   0  0  0  0  0  0  0  0  0  0  0  0
    0.7145    2.0624    0.0000 F   0  0  0  0  0  0  0  0  0  0  0  0
  1  2  2  0      
  2  3  1  0      
  3  4  2  0      
  4  5  1  0      
  5  6  2  0      
  6  7  1  0      
  7  8  2  0      
  8  9  1  0      
  9 10  2  0      
  1 10  1  0      
  5 10  1  0      
  4 11  1  0      
  7 12  1  0      
  2 13  1  0      
 14 15  1  0      
 15 16  2  0      
 16 17  1  0      
 17 18  2  0      
 18 19  1  0      
 14 19  2  0      
 20 21  1  0      
 21 22  2  0      
 22 23  1  0      
 23 24  2  0      
 24 25  1  0      
 20 25  2  0      
 26 27  1  0      
 24 26  1  0      
 28 29  1  0      
 23 28  1  0      
 30 31  1  0      
 22 30  1  0      
 14 20  1  0      
 17 32  1  0      
 12 16  1  0      
M  END

>  <RackCode>
HYCPK72335

>  <Cat. No.>
HY-147185

>  <Product Name>
PRMT7-IN-1

>  <ROW>
N

>  <COLUMN>
3

>  <CAS No.>
2247753-73-5

>  <MWt>
435.45

>  <Target>
Histone Methyltransferase

>  <Saltdate>


>  <Smiles>
NC1=CC(C)=NC2=CC=C(NC3=NC(C4=CC(OC)=C(OC)C(OC)=C4)=NC=C3F)C=C12

>  <Solvent>
DMSO Solution

>  <Batch No.>
444713

>  <Quantity>
10mM  * 50uL

>  <Pathway>
Epigenetics

>  <Synonyms>


>  <Formula>
C23H22FN5O3

>  <Research_Area>
Cancer

>  <Clinical_Information>
No Development Reported

>  <SUPPLIER>
MedChemExpress

$$$$
Untitled Document
  ChemDraw06171617012D

 71 77  0  0  0  0  0  0  0  0999 V2000
    2.5952    1.6517    0.0000 C   0  0  0  0  0  0  0  0  0  0  0  0
    2.5952    0.8267    0.0000 C   0  0  0  0  0  0  0  0  0  0  0  0
    1.8828    1.2423    0.0000 C   0  0  0  0  0  0  0  0  0  0  0  0
    3.3076    1.2423    0.0000 C   0  0  0  0  0  0  0  0  0  0  0  0
    2.5952   -0.0044    0.0000 C   0  0  0  0  0  0  0  0  0  0  0  0
    1.1704    0.8267    0.0000 C   0  0  0  0  0  0  0  0  0  0  0  0
    1.8828    2.0734    0.0000 C   0  0  0  0  0  0  0  0  0  0  0  0
    3.3076    0.4173    0.0000 C   0  0  0  0  0  0  0  0  0  0  0  0
    3.3076    2.0734    0.0000 C   0  0  0  0  0  0  0  0  0  0  0  0
    4.7324    1.2423    0.0000 C   0  0  0  0  0  0  0  0  0  0  0  0
    1.8828   -0.4200    0.0000 C   0  0  0  0  0  0  0  0  0  0  0  0
    1.1704    1.6517    0.0000 C   0  0  0  0  0  0  0  0  0  0  0  0
    1.1704   -0.0044    0.0000 C   0  0  0  0  0  0  0  0  0  0  0  0
    0.4559    1.2423    0.0000 C   0  0  0  0  0  0  0  0  0  0  0  0
    2.5952    2.4890    0.0000 C   0  0  0  0  0  0  0  0  0  0  0  0
    4.0200    2.4890    0.0000 C   0  0  0  0  0  0  0  0  0  0  0  0
    4.7324    2.0734    0.0000 C   0  0  0  0  0  0  0  0  0  0  0  0
    0.4559   -0.4200    0.0000 C   0  0  0  0  0  0  0  0  0  0  0  0
   -0.2565    0.8267    0.0000 C   0  0  0  0  0  0  0  0  0  0  0  0
    2.5952    3.3140    0.0000 O   0  0  0  0  0  0  0  0  0  0  0  0
    4.7344    2.9025    0.0000 C   0  0  0  0  0  0  0  0  0  0  0  0
   -0.0743   -1.0526    0.0000 C   0  0  0  0  0  0  0  0  0  0  0  0
    0.7072   -1.2058    0.0000 C   0  0  0  0  0  0  0  0  0  0  0  0
   -0.2565   -0.0044    0.0000 C   0  0  0  0  0  0  0  0  0  0  0  0
    4.7344    3.7275    0.0000 C   0  0  0  0  0  0  0  0  0  0  0  0
    5.5594    2.9025    0.0000 C   0  0  0  0  0  0  0  0  0  0  0  0
    5.1459    2.1880    0.0000 O   0  0  0  0  0  0  0  0  0  0  0  0
   -0.9709   -0.4180    0.0000 O   0  0  0  0  0  0  0  0  0  0  0  0
    5.4489    4.1390    0.0000 C   0  0  0  0  0  0  0  0  0  0  0  0
   -1.6854   -0.0044    0.0000 C   0  0  0  0  0  0  0  0  0  0  0  0
    6.1613    3.7275    0.0000 C   0  0  0  0  0  0  0  0  0  0  0  0
   -2.3978   -0.4180    0.0000 C   0  0  0  0  0  0  0  0  0  0  0  0
   -1.6854    0.8205    0.0000 O   0  0  0  0  0  0  0  0  0  0  0  0
   -2.3978   -2.0741    0.0000 O   0  0  0  0  0  0  0  0  0  0  0  0
   -3.1143   -0.0044    0.0000 C   0  0  0  0  0  0  0  0  0  0  0  0
   -2.3978    1.2320    0.0000 C   0  0  0  0  0  0  0  0  0  0  0  0
   -3.1123   -2.4856    0.0000 C   0  0  0  0  0  0  0  0  0  0  0  0
   -3.8288   -0.4180    0.0000 O   0  0  0  0  0  0  0  0  0  0  0  0
   -3.1143    0.8205    0.0000 C   0  0  0  0  0  0  0  0  0  0  0  0
   -2.3978    2.0570    0.0000 C   0  0  0  0  0  0  0  0  0  0  0  0
   -3.8267   -2.0741    0.0000 C   0  0  0  0  0  0  0  0  0  0  0  0
   -3.1123   -3.3106    0.0000 O   0  0  0  0  0  0  0  0  0  0  0  0
   -3.8288    1.2320    0.0000 O   0  0  0  0  0  0  0  0  0  0  0  0
   -3.1123    2.4705    0.0000 O   0  0  0  0  0  0  0  0  0  0  0  0
   -3.8267   -1.2491    0.0000 O   0  0  0  0  0  0  0  0  0  0  0  0
   -4.5412   -2.4856    0.0000 C   0  0  0  0  0  0  0  0  0  0  0  0
   -3.8267   -3.7241    0.0000 C   0  0  0  0  0  0  0  0  0  0  0  0
   -5.4399   -0.3177    0.0000 C   0  0  0  0  0  0  0  0  0  0  0  0
   -5.3429   -2.2912    0.0000 O   0  0  0  0  0  0  0  0  0  0  0  0
   -4.5412   -3.3106    0.0000 C   0  0  0  0  0  0  0  0  0  0  0  0
   -3.8267   -4.5491    0.0000 C   0  0  0  0  0  0  0  0  0  0  0  0
   -6.1543   -0.7291    0.0000 C   0  0  0  0  0  0  0  0  0  0  0  0
   -5.4399    0.5073    0.0000 O   0  0  0  0  0  0  0  0  0  0  0  0
   -5.2556   -3.7241    0.0000 O   0  0  0  0  0  0  0  0  0  0  0  0
   -4.5412   -4.9606    0.0000 O   0  0  0  0  0  0  0  0  0  0  0  0
   -6.2061   -1.5525    0.0000 O   0  0  0  0  0  0  0  0  0  0  0  0
   -6.8688   -0.3177    0.0000 C   0  0  0  0  0  0  0  0  0  0  0  0
   -6.1543    0.9209    0.0000 C   0  0  0  0  0  0  0  0  0  0  0  0
   -7.5853   -0.7291    0.0000 O   0  0  0  0  0  0  0  0  0  0  0  0
   -6.8688    0.5073    0.0000 C   0  0  0  0  0  0  0  0  0  0  0  0
   -7.5853    0.9209    0.0000 O   0  0  0  0  0  0  0  0  0  0  0  0
    1.8828    0.4173    0.0000 H   0  0  0  0  0  0  0  0  0  0  0  0
    3.3076    2.8984    0.0000 H   0  0  0  0  0  0  0  0  0  0  0  0
    1.1704   -1.6606    0.0000 H   0  0  0  0  0  0  0  0  0  0  0  0
    4.0200    3.3140    0.0000 H   0  0  0  0  0  0  0  0  0  0  0  0
   -1.6854   -0.8294    0.0000 H   0  0  0  0  0  0  0  0  0  0  0  0
   -2.3978   -2.8991    0.0000 H   0  0  0  0  0  0  0  0  0  0  0  0
   -5.4399   -1.1406    0.0000 H   0  0  0  0  0  0  0  0  0  0  0  0
    6.8734    4.1384    0.0000 C   0  0  0  0  0  0  0  0  0  0  0  0
    7.5853    3.7272    0.0000 C   0  0  0  0  0  0  0  0  0  0  0  0
    6.8735    4.9606    0.0000 C   0  0  0  0  0  0  0  0  0  0  0  0
  2  1  1  1      
  2  3  1  0      
  2  4  1  0      
  2  5  1  0      
  3  6  1  0      
  3  7  1  0      
  3 62  1  6      
  4  8  1  6      
  4  9  1  0      
  4 10  1  0      
  5 11  1  0      
  6 12  1  1      
  6 13  1  0      
  6 14  1  0      
  7 15  1  0      
  9 15  1  0      
  9 16  1  0      
  9 63  1  1      
 10 17  1  0      
 11 13  1  0      
 13 18  1  0      
 13 64  1  6      
 14 19  1  0      
 15 20  1  1      
 16 17  1  0      
 16 21  1  0      
 16 65  1  6      
 18 22  1  0      
 18 23  1  0      
 18 24  1  0      
 19 24  1  0      
 21 25  1  0      
 21 26  1  6      
 21 27  1  0      
 24 28  1  1      
 25 29  1  0      
 28 30  1  0      
 29 31  1  0      
 30 32  1  0      
 30 33  1  0      
 30 66  1  6      
 32 34  1  6      
 32 35  1  0      
 33 36  1  0      
 34 37  1  0      
 35 38  1  1      
 35 39  1  0      
 36 39  1  0      
 36 40  1  1      
 37 41  1  0      
 37 42  1  0      
 37 67  1  1      
 39 43  1  6      
 40 44  1  0      
 41 45  1  1      
 41 46  1  0      
 42 47  1  0      
 45 48  1  0      
 46 49  1  6      
 46 50  1  0      
 47 50  1  0      
 47 51  1  6      
 48 52  1  0      
 48 53  1  0      
 48 68  1  6      
 50 54  1  1      
 51 55  1  0      
 52 56  1  6      
 52 57  1  0      
 53 58  1  0      
 57 59  1  1      
 57 60  1  0      
 58 60  1  0      
 60 61  1  6      
 31 69  2  0      
 69 70  1  0      
 69 71  1  0      
M  END

>  <RackCode>
HYCPK72335

>  <Cat. No.>
HY-N0910

>  <Product Name>
Notoginsenoside Ft1

>  <ROW>
O

>  <COLUMN>
3

>  <CAS No.>
155683-00-4

>  <MWt>
917.13

>  <Target>
Apoptosis; HIF/HIF Prolyl-Hydroxylase

>  <Saltdate>
Free Base

>  <Smiles>
C[C@@]([C@@]12C)(CC[C@@]3([H])C4(C)C)[C@@](C[C@@H](O)[C@]1([H])[C@]([C@](C)(O)CC/C=C(C)/C)([H])CC2)([H])[C@]3(CC[C@@H]4O[C@@](O[C@H](CO)[C@@H](O)[C@@H]5O)([H])[C@@H]5O[C@@](O[C@H](CO)[C@@H](O)[C@@H]6O)([H])[C@@H]6O[C@@](OC[C@@H](O)[C@@H]7O)([H])[C@@H]7O)C

>  <Solvent>
DMSO Solution

>  <Batch No.>
29017

>  <Quantity>
10mM  * 50uL

>  <Pathway>
Apoptosis; Metabolic Enzyme/Protease

>  <Synonyms>


>  <Formula>
C47H80O17

>  <Research_Area>
Others

>  <Clinical_Information>
No Development Reported

>  <SUPPLIER>
MedChemExpress

$$$$
Untitled Document
  ChemDraw03081912342D

 35 40  0  0  0  0  0  0  0  0999 V2000
   -1.2316   -0.6661    0.0000 N   0  0  0  0  0  0  0  0  0  0  0  0
   -0.4247   -0.4946    0.0000 C   0  0  0  0  0  0  0  0  0  0  0  0
    0.1274   -1.1077    0.0000 C   0  0  0  0  0  0  0  0  0  0  0  0
   -0.1276   -1.8923    0.0000 C   0  0  0  0  0  0  0  0  0  0  0  0
   -0.9346   -2.0638    0.0000 C   0  0  0  0  0  0  0  0  0  0  0  0
   -1.1895   -2.8484    0.0000 C   0  0  0  0  0  0  0  0  0  0  0  0
   -1.9965   -3.0200    0.0000 C   0  0  0  0  0  0  0  0  0  0  0  0
   -2.5485   -2.4069    0.0000 C   0  0  0  0  0  0  0  0  0  0  0  0
   -2.2936   -1.6223    0.0000 C   0  0  0  0  0  0  0  0  0  0  0  0
   -1.4866   -1.4507    0.0000 C   0  0  0  0  0  0  0  0  0  0  0  0
   -2.8456   -1.0092    0.0000 N   0  0  0  0  0  0  0  0  0  0  0  0
   -3.6526   -1.1807    0.0000 C   0  0  0  0  0  0  0  0  0  0  0  0
   -5.4027    0.5694    0.0000 N   0  0  0  0  0  0  0  0  0  0  0  0
   -4.6058    0.7829    0.0000 C   0  0  0  0  0  0  0  0  0  0  0  0
   -4.0224    0.1996    0.0000 C   0  0  0  0  0  0  0  0  0  0  0  0
   -4.2359   -0.5973    0.0000 C   0  0  0  0  0  0  0  0  0  0  0  0
   -5.0328   -0.8109    0.0000 C   0  0  0  0  0  0  0  0  0  0  0  0
   -5.6162   -0.2275    0.0000 C   0  0  0  0  0  0  0  0  0  0  0  0
    1.3294    2.6075    0.0000 O   0  0  0  0  0  0  0  0  0  0  0  0
    1.3294    1.7825    0.0000 C   0  0  0  0  0  0  0  0  0  0  0  0
    2.0438    1.3700    0.0000 C   0  0  0  0  0  0  0  0  0  0  0  0
    2.7583    1.7825    0.0000 N   0  0  0  0  0  0  0  0  0  0  0  0
    2.7583    2.6075    0.0000 C   0  0  0  0  0  0  0  0  0  0  0  0
    2.0438    3.0200    0.0000 C   0  0  0  0  0  0  0  0  0  0  0  0
    0.6149    1.3700    0.0000 C   0  0  0  0  0  0  0  0  0  0  0  0
    2.0438    0.5450    0.0000 C   0  0  0  0  0  0  0  0  0  0  0  0
    1.3294    0.1325    0.0000 N   0  0  0  0  0  0  0  0  0  0  0  0
    0.6149    0.5450    0.0000 N   0  0  0  0  0  0  0  0  0  0  0  0
   -0.6547    0.9575    0.0000 N   0  0  0  0  0  0  0  0  0  0  0  0
   -0.1697    1.6249    0.0000 N   0  0  0  0  0  0  0  0  0  0  0  0
   -0.1697    0.2900    0.0000 C   0  0  0  0  0  0  0  0  0  0  0  0
    3.4728    1.3700    0.0000 C   0  0  0  0  0  0  0  0  0  0  0  0
    4.1872    1.7825    0.0000 C   0  0  0  0  0  0  0  0  0  0  0  0
    4.9017    1.3700    0.0000 O   0  0  0  0  0  0  0  0  0  0  0  0
    5.6162    1.7825    0.0000 C   0  0  0  0  0  0  0  0  0  0  0  0
  1  2  2  0      
  2  3  1  0      
  3  4  2  0      
  4  5  1  0      
  5  6  2  0      
  6  7  1  0      
  7  8  2  0      
  8  9  1  0      
  9 10  2  0      
  1 10  1  0      
  5 10  1  0      
  9 11  1  0      
 13 14  1  0      
 14 15  1  0      
 15 16  1  0      
 16 17  1  0      
 17 18  1  0      
 13 18  1  0      
 12 16  1  0      
 11 12  1  0      
 19 20  1  0      
 20 21  2  0      
 21 22  1  0      
 22 23  1  0      
 23 24  1  0      
 19 24  1  0      
 26 27  2  0      
 27 28  1  0      
 25 28  1  0      
 29 30  1  0      
 29 31  2  0      
 28 31  1  0      
 25 30  2  0      
 20 25  1  0      
 21 26  1  0      
 32 33  1  0      
 34 35  1  0      
 33 34  1  0      
 22 32  1  0      
  2 31  1  0      
M  END

>  <RackCode>
HYCPK72335

>  <Cat. No.>
HY-111552

>  <Product Name>
PIM1-IN-1

>  <ROW>
P

>  <COLUMN>
3

>  <CAS No.>
1417630-95-5

>  <MWt>
474.56

>  <Target>
Pim

>  <Saltdate>
Free Base

>  <Smiles>
COCCN1C2=C(C3=NN=C(C4=NC5=C(NCC6CCNCC6)C=CC=C5C=C4)N3N=C2)OCC1

>  <Solvent>
DMSO Solution

>  <Batch No.>
138626

>  <Quantity>
10mM  * 50uL

>  <Pathway>
JAK/STAT Signaling

>  <Synonyms>


>  <Formula>
C25H30N8O2

>  <Research_Area>
Cancer

>  <Clinical_Information>
No Development Reported

>  <SUPPLIER>
MedChemExpress

$$$$
Untitled Document
  ChemDraw08132417472D

 57 62  0  0  0  0  0  0  0  0999 V2000
   -2.0354   -1.0505    0.0000 C   0  0  0  0  0  0  0  0  0  0  0  0
   -2.7498   -1.4630    0.0000 C   0  0  0  0  0  0  0  0  0  0  0  0
   -2.0354   -0.2255    0.0000 O   0  0  0  0  0  0  0  0  0  0  0  0
   -1.3210   -1.4630    0.0000 N   0  0  0  0  0  0  0  0  0  0  0  0
   -0.6065   -1.0505    0.0000 C   0  0  0  0  0  0  0  0  0  0  0  0
    0.1079   -1.4630    0.0000 C   0  0  0  0  0  0  0  0  0  0  0  0
    0.8224   -1.0505    0.0000 O   0  0  0  0  0  0  0  0  0  0  0  0
    1.5369   -1.4630    0.0000 C   0  0  0  0  0  0  0  0  0  0  0  0
    2.2513   -1.0505    0.0000 C   0  0  0  0  0  0  0  0  0  0  0  0
    2.9657   -1.4630    0.0000 O   0  0  0  0  0  0  0  0  0  0  0  0
    3.6802   -1.0505    0.0000 C   0  0  0  0  0  0  0  0  0  0  0  0
    4.3947   -1.4630    0.0000 C   0  0  0  0  0  0  0  0  0  0  0  0
    5.1090   -1.0505    0.0000 N   0  0  0  0  0  0  0  0  0  0  0  0
    7.8655   -0.9110    0.0000 C   0  0  0  0  0  0  0  0  0  0  0  0
    7.5300   -0.1573    0.0000 N   0  0  0  0  0  0  0  0  0  0  0  0
    6.7095   -0.2436    0.0000 C   0  0  0  0  0  0  0  0  0  0  0  0
    6.5380   -1.0505    0.0000 C   0  0  0  0  0  0  0  0  0  0  0  0
    5.8235   -1.4630    0.0000 C   0  0  0  0  0  0  0  0  0  0  0  0
    5.8235   -2.2879    0.0000 C   0  0  0  0  0  0  0  0  0  0  0  0
    6.5380   -2.7004    0.0000 C   0  0  0  0  0  0  0  0  0  0  0  0
    7.2525   -2.2879    0.0000 C   0  0  0  0  0  0  0  0  0  0  0  0
    7.2525   -1.4630    0.0000 C   0  0  0  0  0  0  0  0  0  0  0  0
    6.1575    0.3695    0.0000 O   0  0  0  0  0  0  0  0  0  0  0  0
    8.6724   -1.0825    0.0000 O   0  0  0  0  0  0  0  0  0  0  0  0
    7.9425    1.9860    0.0000 N   0  0  0  0  0  0  0  0  0  0  0  0
    7.5300    1.2716    0.0000 C   0  0  0  0  0  0  0  0  0  0  0  0
    7.9425    0.5571    0.0000 C   0  0  0  0  0  0  0  0  0  0  0  0
    8.7674    0.5571    0.0000 C   0  0  0  0  0  0  0  0  0  0  0  0
    9.1799    1.2716    0.0000 C   0  0  0  0  0  0  0  0  0  0  0  0
    8.7674    1.9860    0.0000 C   0  0  0  0  0  0  0  0  0  0  0  0
    9.1799    2.7004    0.0000 O   0  0  0  0  0  0  0  0  0  0  0  0
    6.7050    1.2716    0.0000 O   0  0  0  0  0  0  0  0  0  0  0  0
   -3.4643   -1.0505    0.0000 N   0  0  0  0  0  0  0  0  0  0  0  0
   -3.4643   -0.2255    0.0000 C   0  0  0  0  0  0  0  0  0  0  0  0
   -4.1788   -1.4630    0.0000 C   0  0  0  0  0  0  0  0  0  0  0  0
   -4.8933   -1.0505    0.0000 C   0  0  0  0  0  0  0  0  0  0  0  0
   -4.8933   -0.2255    0.0000 C   0  0  0  0  0  0  0  0  0  0  0  0
   -5.6076    0.1870    0.0000 C   0  0  0  0  0  0  0  0  0  0  0  0
   -6.3221   -0.2255    0.0000 C   0  0  0  0  0  0  0  0  0  0  0  0
   -6.3221   -1.0505    0.0000 C   0  0  0  0  0  0  0  0  0  0  0  0
   -5.6076   -1.4630    0.0000 C   0  0  0  0  0  0  0  0  0  0  0  0
   -8.4654    1.0120    0.0000 C   0  0  0  0  0  0  0  0  0  0  0  0
   -8.4654    0.1870    0.0000 N   0  0  0  0  0  0  0  0  0  0  0  0
   -7.7510   -0.2255    0.0000 C   0  0  0  0  0  0  0  0  0  0  0  0
   -7.0366    0.1870    0.0000 C   0  0  0  0  0  0  0  0  0  0  0  0
   -7.0366    1.0120    0.0000 C   0  0  0  0  0  0  0  0  0  0  0  0
   -6.3221    1.4245    0.0000 C   0  0  0  0  0  0  0  0  0  0  0  0
   -6.3221    2.2494    0.0000 C   0  0  0  0  0  0  0  0  0  0  0  0
   -7.0366    2.6619    0.0000 N   0  0  0  0  0  0  0  0  0  0  0  0
   -7.7510    2.2494    0.0000 C   0  0  0  0  0  0  0  0  0  0  0  0
   -7.7510    1.4245    0.0000 C   0  0  0  0  0  0  0  0  0  0  0  0
   -9.1799    1.4245    0.0000 O   0  0  0  0  0  0  0  0  0  0  0  0
   -9.1799   -0.2255    0.0000 C   0  0  0  0  0  0  0  0  0  0  0  0
   -5.6076   -2.2879    0.0000 O   0  0  0  0  0  0  0  0  0  0  0  0
   -6.3221   -2.7004    0.0000 C   0  0  0  0  0  0  0  0  0  0  0  0
   -4.1788    0.1870    0.0000 O   0  0  0  0  0  0  0  0  0  0  0  0
   -4.1788    1.0120    0.0000 C   0  0  0  0  0  0  0  0  0  0  0  0
  1  2  1  0      
  1  3  2  0      
  1  4  1  0      
  5  6  1  0      
  8  9  1  0      
  7  8  1  0      
 11 12  1  0      
 10 11  1  0      
 14 15  1  0      
 15 16  1  0      
 16 17  1  0      
 17 18  1  0      
 18 19  2  0      
 19 20  1  0      
 20 21  2  0      
 21 22  1  0      
 14 22  1  0      
 17 22  2  0      
 16 23  2  0      
 14 24  2  0      
 25 26  1  0      
 26 27  1  0      
 27 28  1  0      
 28 29  1  0      
 29 30  1  0      
 25 30  1  0      
 30 31  2  0      
 26 32  2  0      
 15 27  1  0      
 13 18  1  0      
 12 13  1  0      
  9 10  1  0      
  6  7  1  0      
  4  5  1  0      
 33 34  1  0      
 35 36  1  0      
 36 37  1  0      
 37 38  2  0      
 38 39  1  0      
 39 40  2  0      
 40 41  1  0      
 36 41  2  0      
 42 43  1  0      
 43 44  1  0      
 44 45  2  0      
 45 46  1  0      
 46 47  2  0      
 47 48  1  0      
 48 49  2  0      
 49 50  1  0      
 50 51  2  0      
 42 51  1  0      
 46 51  1  0      
 42 52  2  0      
 43 53  1  0      
 39 45  1  0      
 54 55  1  0      
 41 54  1  0      
 56 57  1  0      
 37 56  1  0      
 33 35  1  0      
  2 33  1  0      
M  END

>  <RackCode>
HYCPK72335

>  <Cat. No.>
HY-117690

>  <Product Name>
dBRD9

>  <ROW>
A

>  <COLUMN>
4

>  <CAS No.>
2170679-45-3

>  <MWt>
783.83

>  <Target>
Epigenetic Reader Domain; PROTACs

>  <Saltdate>


>  <Smiles>
O=C(NCCOCCOCCNC1=CC=CC(C(N2C(CC3)C(NC3=O)=O)=O)=C1C2=O)CN(CC4=C(OC)C=C(C(C5=CC=NC=C65)=CN(C)C6=O)C=C4OC)C

>  <Solvent>
DMSO Solution

>  <Batch No.>
252089

>  <Quantity>
10mM  * 50uL

>  <Pathway>
Epigenetics; PROTAC

>  <Synonyms>


>  <Formula>
C40H45N7O10

>  <Research_Area>
Cancer

>  <Clinical_Information>
No Development Reported

>  <SUPPLIER>
MedChemExpress

$$$$
Untitled Document
  ChemDraw05262211082D

 28 31  0  0  0  0  0  0  0  0999 V2000
    2.3686    1.7240    0.0000 O   0  0  0  0  0  0  0  0  0  0  0  0
    2.3686    0.8990    0.0000 C   0  0  0  0  0  0  0  0  0  0  0  0
    3.0830    0.4865    0.0000 N   0  0  0  0  0  0  0  0  0  0  0  0
    3.7975    0.8990    0.0000 C   0  0  0  0  0  0  0  0  0  0  0  0
    4.5120    0.4865    0.0000 C   0  0  0  0  0  0  0  0  0  0  0  0
    5.2264    0.8990    0.0000 C   0  0  0  0  0  0  0  0  0  0  0  0
    5.2264    1.7240    0.0000 C   0  0  0  0  0  0  0  0  0  0  0  0
    4.5120    2.1365    0.0000 C   0  0  0  0  0  0  0  0  0  0  0  0
    3.7975    1.7240    0.0000 C   0  0  0  0  0  0  0  0  0  0  0  0
    3.0830    2.1365    0.0000 N   0  0  0  0  0  0  0  0  0  0  0  0
    1.6542    0.4865    0.0000 C   0  0  0  0  0  0  0  0  0  0  0  0
    1.6542   -0.3385    0.0000 C   0  0  0  0  0  0  0  0  0  0  0  0
    0.9397   -0.7510    0.0000 C   0  0  0  0  0  0  0  0  0  0  0  0
    0.2252   -0.3385    0.0000 C   0  0  0  0  0  0  0  0  0  0  0  0
    0.2252    0.4865    0.0000 C   0  0  0  0  0  0  0  0  0  0  0  0
    0.9397    0.8990    0.0000 C   0  0  0  0  0  0  0  0  0  0  0  0
   -0.4892   -0.7510    0.0000 C   0  0  0  0  0  0  0  0  0  0  0  0
   -0.5755   -1.5714    0.0000 N   0  0  0  0  0  0  0  0  0  0  0  0
   -1.3824   -1.7430    0.0000 N   0  0  0  0  0  0  0  0  0  0  0  0
   -1.7949   -1.0285    0.0000 N   0  0  0  0  0  0  0  0  0  0  0  0
   -1.2429   -0.4154    0.0000 C   0  0  0  0  0  0  0  0  0  0  0  0
   -2.6154   -0.9423    0.0000 C   0  0  0  0  0  0  0  0  0  0  0  0
   -3.1002   -1.6097    0.0000 C   0  0  0  0  0  0  0  0  0  0  0  0
   -3.9207   -1.5235    0.0000 C   0  0  0  0  0  0  0  0  0  0  0  0
   -4.4728   -2.1365    0.0000 C   0  0  0  0  0  0  0  0  0  0  0  0
   -5.2264   -1.8010    0.0000 S   0  0  0  0  0  0  0  0  0  0  0  0
   -5.1402   -0.9805    0.0000 C   0  0  0  0  0  0  0  0  0  0  0  0
   -4.3332   -0.8090    0.0000 C   0  0  0  0  0  0  0  0  0  0  0  0
  1  2  2  0      
  2  3  1  0      
  3  4  1  0      
  4  5  1  0      
  5  6  2  0      
  6  7  1  0      
  7  8  2  0      
  8  9  1  0      
  4  9  2  0      
  9 10  1  0      
  2 11  1  0      
 11 12  1  0      
 12 13  2  0      
 13 14  1  0      
 14 15  2  0      
 15 16  1  0      
 11 16  2  0      
 14 17  1  0      
 17 18  1  0      
 18 19  2  0      
 19 20  1  0      
 20 21  1  0      
 17 21  2  0      
 20 22  1  0      
 22 23  1  0      
 23 24  1  0      
 24 25  2  0      
 25 26  1  0      
 26 27  1  0      
 27 28  2  0      
 24 28  1  0      
M  END

>  <RackCode>
HYCPK72335

>  <Cat. No.>
HY-123295

>  <Product Name>
HDAC3-IN-T247

>  <ROW>
B

>  <COLUMN>
4

>  <CAS No.>
1451042-18-4

>  <MWt>
389.47

>  <Target>
HDAC

>  <Saltdate>


>  <Smiles>
O=C(C1=CC=C(C2=CN(CCC3=CSC=C3)N=N2)C=C1)NC4=C(N)C=CC=C4

>  <Solvent>
DMSO Solution

>  <Batch No.>
259272

>  <Quantity>
10mM  * 50uL

>  <Pathway>
Cell Cycle/DNA Damage; Epigenetics

>  <Synonyms>


>  <Formula>
C21H19N5OS

>  <Research_Area>
Cancer; Infection

>  <Clinical_Information>
No Development Reported

>  <SUPPLIER>
MedChemExpress

$$$$
Untitled Document
  ChemDraw08042112592D

 23 25  0  0  0  0  0  0  0  0999 V2000
    0.6509    1.5544    0.0000 O   0  0  0  0  0  0  0  0  0  0  0  0
    0.9059    0.7698    0.0000 C   0  0  0  0  0  0  0  0  0  0  0  0
    1.7128    0.5983    0.0000 N   0  0  0  0  0  0  0  0  0  0  0  0
    2.2962    1.1816    0.0000 C   0  0  0  0  0  0  0  0  0  0  0  0
    3.0931    0.9681    0.0000 C   0  0  0  0  0  0  0  0  0  0  0  0
    3.3066    0.1712    0.0000 O   0  0  0  0  0  0  0  0  0  0  0  0
    3.6765    1.5515    0.0000 O   0  0  0  0  0  0  0  0  0  0  0  0
    0.3538    0.1567    0.0000 C   0  0  0  0  0  0  0  0  0  0  0  0
   -0.4531    0.3282    0.0000 C   0  0  0  0  0  0  0  0  0  0  0  0
   -0.7081    1.1128    0.0000 O   0  0  0  0  0  0  0  0  0  0  0  0
   -1.0052   -0.2849    0.0000 N   0  0  0  0  0  0  0  0  0  0  0  0
   -0.7502   -1.0695    0.0000 C   0  0  0  0  0  0  0  0  0  0  0  0
    0.0567   -1.2410    0.0000 N   0  0  0  0  0  0  0  0  0  0  0  0
    0.6088   -0.6279    0.0000 C   0  0  0  0  0  0  0  0  0  0  0  0
    1.4158   -0.7995    0.0000 O   0  0  0  0  0  0  0  0  0  0  0  0
   -1.4177   -1.5544    0.0000 S   0  0  0  0  0  0  0  0  0  0  0  0
   -2.0851   -1.0695    0.0000 C   0  0  0  0  0  0  0  0  0  0  0  0
   -1.8302   -0.2849    0.0000 C   0  0  0  0  0  0  0  0  0  0  0  0
   -2.2847    0.4037    0.0000 C   0  0  0  0  0  0  0  0  0  0  0  0
   -3.1063    0.4776    0.0000 C   0  0  0  0  0  0  0  0  0  0  0  0
   -3.6765   -0.1187    0.0000 C   0  0  0  0  0  0  0  0  0  0  0  0
   -3.5657   -0.9362    0.0000 C   0  0  0  0  0  0  0  0  0  0  0  0
   -2.8575   -1.3594    0.0000 C   0  0  0  0  0  0  0  0  0  0  0  0
  1  2  2  0      
  2  3  1  0      
  3  4  1  0      
  4  5  1  0      
  5  6  2  0      
  5  7  1  0      
  2  8  1  0      
  8  9  1  0      
  9 10  2  0      
  9 11  1  0      
 11 12  1  0      
 12 13  2  0      
 13 14  1  0      
  8 14  2  0      
 14 15  1  0      
 12 16  1  0      
 16 17  1  0      
 17 18  2  0      
 11 18  1  0      
 18 19  1  0      
 19 20  1  0      
 20 21  1  0      
 21 22  1  0      
 22 23  1  0      
 17 23  1  0      
M  END

>  <RackCode>
HYCPK72335

>  <Cat. No.>
HY-141625

>  <Product Name>
TRC160334

>  <ROW>
C

>  <COLUMN>
4

>  <CAS No.>
1293289-69-6

>  <MWt>
337.35

>  <Target>
HIF/HIF Prolyl-Hydroxylase

>  <Saltdate>


>  <Smiles>
O=C(C1=C(O)N=C(SC2=C3CCCCC2)N3C1=O)NCC(O)=O

>  <Solvent>
DMSO Solution

>  <Batch No.>
146504

>  <Quantity>
10mM  * 50uL

>  <Pathway>
Metabolic Enzyme/Protease

>  <Synonyms>


>  <Formula>
C14H15N3O5S

>  <Research_Area>
Others

>  <Clinical_Information>
No Development Reported

>  <SUPPLIER>
MedChemExpress

$$$$
Untitled Document
  ChemDraw08242417012D

 57 65  0  0  0  0  0  0  0  0999 V2000
   -3.1680    1.7982    0.0000 N   0  0  0  0  0  0  0  0  0  0  0  0
   -2.5006    1.3133    0.0000 C   0  0  0  0  0  0  0  0  0  0  0  0
   -2.7555    0.5286    0.0000 C   0  0  0  0  0  0  0  0  0  0  0  0
   -3.5805    0.5286    0.0000 C   0  0  0  0  0  0  0  0  0  0  0  0
   -4.1325   -0.0845    0.0000 C   0  0  0  0  0  0  0  0  0  0  0  0
   -4.9395    0.0871    0.0000 C   0  0  0  0  0  0  0  0  0  0  0  0
   -5.1945    0.8717    0.0000 C   0  0  0  0  0  0  0  0  0  0  0  0
   -4.6424    1.4848    0.0000 C   0  0  0  0  0  0  0  0  0  0  0  0
   -3.8355    1.3133    0.0000 C   0  0  0  0  0  0  0  0  0  0  0  0
   -1.1416    0.8717    0.0000 C   0  0  0  0  0  0  0  0  0  0  0  0
   -1.6936    1.4848    0.0000 N   0  0  0  0  0  0  0  0  0  0  0  0
   -2.2035   -0.0845    0.0000 C   0  0  0  0  0  0  0  0  0  0  0  0
   -1.3965    0.0871    0.0000 N   0  0  0  0  0  0  0  0  0  0  0  0
   -0.3346    1.0432    0.0000 C   0  0  0  0  0  0  0  0  0  0  0  0
   -0.1211    1.8401    0.0000 O   0  0  0  0  0  0  0  0  0  0  0  0
    0.2488    0.4599    0.0000 N   0  0  0  0  0  0  0  0  0  0  0  0
   -5.4916   -0.5260    0.0000 O   0  0  0  0  0  0  0  0  0  0  0  0
   -5.2366   -1.3107    0.0000 C   0  0  0  0  0  0  0  0  0  0  0  0
    1.0457    0.6734    0.0000 C   0  0  0  0  0  0  0  0  0  0  0  0
    1.6290    0.0900    0.0000 C   0  0  0  0  0  0  0  0  0  0  0  0
    2.4259    0.3035    0.0000 C   0  0  0  0  0  0  0  0  0  0  0  0
    5.1246   -0.2751    0.0000 C   0  0  0  0  0  0  0  0  0  0  0  0
    4.9955    0.5397    0.0000 N   0  0  0  0  0  0  0  0  0  0  0  0
    4.1807    0.6688    0.0000 C   0  0  0  0  0  0  0  0  0  0  0  0
    3.8062   -0.0663    0.0000 C   0  0  0  0  0  0  0  0  0  0  0  0
    3.0093   -0.2798    0.0000 C   0  0  0  0  0  0  0  0  0  0  0  0
    2.7957   -1.0767    0.0000 C   0  0  0  0  0  0  0  0  0  0  0  0
    3.3791   -1.6601    0.0000 C   0  0  0  0  0  0  0  0  0  0  0  0
    4.1760   -1.4466    0.0000 C   0  0  0  0  0  0  0  0  0  0  0  0
    4.3895   -0.6497    0.0000 C   0  0  0  0  0  0  0  0  0  0  0  0
    5.8391   -0.6876    0.0000 O   0  0  0  0  0  0  0  0  0  0  0  0
    5.9487    2.5033    0.0000 N   0  0  0  0  0  0  0  0  0  0  0  0
    5.3654    1.9200    0.0000 C   0  0  0  0  0  0  0  0  0  0  0  0
    5.5789    1.1231    0.0000 C   0  0  0  0  0  0  0  0  0  0  0  0
    6.3758    0.9096    0.0000 C   0  0  0  0  0  0  0  0  0  0  0  0
    6.9592    1.4929    0.0000 C   0  0  0  0  0  0  0  0  0  0  0  0
    6.7456    2.2898    0.0000 C   0  0  0  0  0  0  0  0  0  0  0  0
    7.3290    2.8732    0.0000 O   0  0  0  0  0  0  0  0  0  0  0  0
    4.5685    2.1335    0.0000 O   0  0  0  0  0  0  0  0  0  0  0  0
   -7.1575    1.7107    0.0000 O   0  0  0  0  0  0  0  0  0  0  0  0
   -7.3290    0.9037    0.0000 N   0  0  0  0  0  0  0  0  0  0  0  0
   -6.6145    0.4912    0.0000 C   0  0  0  0  0  0  0  0  0  0  0  0
   -6.0014    1.0432    0.0000 C   0  0  0  0  0  0  0  0  0  0  0  0
   -6.3370    1.7969    0.0000 C   0  0  0  0  0  0  0  0  0  0  0  0
   -5.9245    2.5114    0.0000 C   0  0  0  0  0  0  0  0  0  0  0  0
   -6.5283   -0.3293    0.0000 C   0  0  0  0  0  0  0  0  0  0  0  0
   -2.4584   -0.8691    0.0000 N   0  0  0  0  0  0  0  0  0  0  0  0
   -2.0779   -2.2891    0.0000 N   0  0  0  0  0  0  0  0  0  0  0  0
   -1.3634   -2.7017    0.0000 N   0  0  0  0  0  0  0  0  0  0  0  0
   -0.7503   -2.1496    0.0000 C   0  0  0  0  0  0  0  0  0  0  0  0
   -1.0859   -1.3959    0.0000 C   0  0  0  0  0  0  0  0  0  0  0  0
   -1.9064   -1.4822    0.0000 C   0  0  0  0  0  0  0  0  0  0  0  0
   -2.8316   -2.6247    0.0000 C   0  0  0  0  0  0  0  0  0  0  0  0
   -3.4990   -2.1398    0.0000 C   0  0  0  0  0  0  0  0  0  0  0  0
    0.0566   -2.3211    0.0000 C   0  0  0  0  0  0  0  0  0  0  0  0
    0.8412   -2.0662    0.0000 C   0  0  0  0  0  0  0  0  0  0  0  0
    0.6697   -2.8732    0.0000 C   0  0  0  0  0  0  0  0  0  0  0  0
  1  2  1  0      
  2  3  1  0      
  3  4  1  0      
  4  5  1  0      
  5  6  2  0      
  6  7  1  0      
  7  8  2  0      
  8  9  1  0      
  1  9  1  0      
  4  9  2  0      
 10 11  1  0      
 12 13  1  0      
 10 13  2  0      
 11  2  2  0      
 12  3  2  0      
 14 15  2  0      
 14 16  1  0      
 10 14  1  0      
 17 18  1  0      
  6 17  1  0      
 19 20  1  0      
 20 21  1  0      
 22 23  1  0      
 23 24  1  0      
 24 25  1  0      
 25 26  1  0      
 26 27  2  0      
 27 28  1  0      
 28 29  2  0      
 29 30  1  0      
 22 30  1  0      
 25 30  2  0      
 22 31  2  0      
 32 33  1  0      
 33 34  1  0      
 34 35  1  0      
 35 36  1  0      
 36 37  1  0      
 32 37  1  0      
 37 38  2  0      
 33 39  2  0      
 23 34  1  0      
 21 26  1  0      
 16 19  1  0      
 40 41  1  0      
 41 42  2  0      
 42 43  1  0      
 43 44  2  0      
 40 44  1  0      
 44 45  1  0      
 42 46  1  0      
  7 43  1  0      
 48 49  1  0      
 49 50  2  0      
 50 51  1  0      
 51 52  2  0      
 48 52  1  0      
 53 54  1  0      
 48 53  1  0      
 55 56  1  0      
 56 57  1  0      
 55 57  1  0      
 50 55  1  0      
 47 52  1  0      
 12 47  1  0      
M  END

>  <RackCode>
HYCPK72335

>  <Cat. No.>
HY-114228

>  <Product Name>
PROTAC BET degrader-2

>  <ROW>
D

>  <COLUMN>
4

>  <CAS No.>
2093388-33-9

>  <MWt>
770.84

>  <Target>
Epigenetic Reader Domain; PROTACs

>  <Saltdate>
Free Base

>  <Smiles>
O=C(C1=NC(NC2=CC(C3CC3)=NN2CC)=C4C(NC5=C4C=C(OC)C(C6=C(C)ON=C6C)=C5)=N1)NCCCC7=CC=CC8=C7CN(C(CC9)C(NC9=O)=O)C8=O

>  <Solvent>
DMSO Solution

>  <Batch No.>
57550

>  <Quantity>
10mM  * 50uL

>  <Pathway>
Epigenetics; PROTAC

>  <Synonyms>


>  <Formula>
C41H42N10O6

>  <Research_Area>
Cancer

>  <Clinical_Information>
No Development Reported

>  <SUPPLIER>
MedChemExpress

$$$$
Untitled Document
  ChemDraw11291616502D

 40 44  0  0  0  0  0  0  0  0999 V2000
   -1.3330    3.9139    0.0000 C   0  0  0  0  0  0  0  0  0  0  0  0
   -2.0475    3.5014    0.0000 C   0  0  0  0  0  0  0  0  0  0  0  0
   -2.7620    3.9139    0.0000 C   0  0  0  0  0  0  0  0  0  0  0  0
   -2.0475    2.6764    0.0000 N   0  0  0  0  0  0  0  0  0  0  0  0
   -1.3801    2.1915    0.0000 C   0  0  0  0  0  0  0  0  0  0  0  0
   -0.5731    2.3631    0.0000 N   0  0  0  0  0  0  0  0  0  0  0  0
   -0.0211    1.7500    0.0000 C   0  0  0  0  0  0  0  0  0  0  0  0
    0.7860    1.9215    0.0000 C   0  0  0  0  0  0  0  0  0  0  0  0
    1.0408    2.7062    0.0000 C   0  0  0  0  0  0  0  0  0  0  0  0
    1.8479    2.8776    0.0000 C   0  0  0  0  0  0  0  0  0  0  0  0
    2.3999    2.2645    0.0000 C   0  0  0  0  0  0  0  0  0  0  0  0
    3.2069    2.4361    0.0000 N   0  0  0  0  0  0  0  0  0  0  0  0
    3.4618    3.2207    0.0000 C   0  0  0  0  0  0  0  0  0  0  0  0
    4.2687    3.3922    0.0000 C   0  0  0  0  0  0  0  0  0  0  0  0
    4.8208    2.7791    0.0000 N   0  0  0  0  0  0  0  0  0  0  0  0
    5.6278    2.9507    0.0000 C   0  0  0  0  0  0  0  0  0  0  0  0
    4.5659    1.9945    0.0000 C   0  0  0  0  0  0  0  0  0  0  0  0
    3.7589    1.8230    0.0000 C   0  0  0  0  0  0  0  0  0  0  0  0
    2.1450    1.4799    0.0000 N   0  0  0  0  0  0  0  0  0  0  0  0
    1.3379    1.3083    0.0000 C   0  0  0  0  0  0  0  0  0  0  0  0
   -0.2760    0.9654    0.0000 C   0  0  0  0  0  0  0  0  0  0  0  0
   -1.0829    0.7938    0.0000 C   0  0  0  0  0  0  0  0  0  0  0  0
   -1.3379    0.0092    0.0000 C   0  0  0  0  0  0  0  0  0  0  0  0
   -2.1449   -0.1623    0.0000 N   0  0  0  0  0  0  0  0  0  0  0  0
   -2.3999   -0.9470    0.0000 C   0  0  0  0  0  0  0  0  0  0  0  0
   -3.2068   -1.1185    0.0000 C   0  0  0  0  0  0  0  0  0  0  0  0
   -3.4618   -1.9031    0.0000 C   0  0  0  0  0  0  0  0  0  0  0  0
   -2.9097   -2.5162    0.0000 C   0  0  0  0  0  0  0  0  0  0  0  0
   -3.1647   -3.3008    0.0000 C   0  0  0  0  0  0  0  0  0  0  0  0
   -2.6126   -3.9139    0.0000 C   0  0  0  0  0  0  0  0  0  0  0  0
   -4.2687   -2.0747    0.0000 C   0  0  0  0  0  0  0  0  0  0  0  0
   -4.8208   -1.4616    0.0000 C   0  0  0  0  0  0  0  0  0  0  0  0
   -5.6278   -1.6331    0.0000 C   0  0  0  0  0  0  0  0  0  0  0  0
   -4.5658   -0.6770    0.0000 N   0  0  0  0  0  0  0  0  0  0  0  0
   -3.7589   -0.5054    0.0000 C   0  0  0  0  0  0  0  0  0  0  0  0
   -3.5039    0.2792    0.0000 O   0  0  0  0  0  0  0  0  0  0  0  0
   -0.7859   -0.6039    0.0000 O   0  0  0  0  0  0  0  0  0  0  0  0
   -1.6350    1.4069    0.0000 C   0  0  0  0  0  0  0  0  0  0  0  0
   -2.4600    1.4069    0.0000 C   0  0  0  0  0  0  0  0  0  0  0  0
   -2.7150    2.1915    0.0000 N   0  0  0  0  0  0  0  0  0  0  0  0
  1  2  1  0      
  2  3  1  0      
  2  4  1  0      
  4 40  1  0      
  4  5  1  0      
  5 38  1  0      
  5  6  2  0      
  6  7  1  0      
  7  8  1  0      
  8 20  1  0      
  8  9  2  0      
  9 10  1  0      
 10 11  2  0      
 11 12  1  0      
 12 18  1  0      
 12 13  1  0      
 13 14  1  0      
 14 15  1  0      
 15 16  1  0      
 15 17  1  0      
 17 18  1  0      
 11 19  1  0      
 19 20  2  0      
  7 21  2  0      
 21 22  1  0      
 22 23  1  0      
 23 24  1  0      
 24 25  1  0      
 25 26  1  0      
 26 35  1  0      
 26 27  2  0      
 27 28  1  0      
 28 29  1  0      
 29 30  1  0      
 27 31  1  0      
 31 32  2  0      
 32 33  1  0      
 32 34  1  0      
 34 35  1  0      
 35 36  2  0      
 23 37  2  0      
 22 38  2  0      
 38 39  1  0      
 39 40  2  0      
V    1 0
V    2 1
V    3 2
V    4 3
V    5 4
V    6 5
V    7 6
V    8 7
V    9 8
V   10 9
V   11 10
V   12 11
V   13 12
V   14 13
V   15 14
V   16 15
V   17 16
V   18 17
V   19 18
V   20 19
V   21 20
V   22 21
V   23 22
V   24 23
V   25 24
V   26 25
V   27 26
V   28 27
V   29 28
V   30 29
V   31 30
V   32 31
V   33 32
V   34 33
V   35 34
V   36 35
V   37 36
V   38 37
V   39 38
V   40 39
M  END

>  <RackCode>
HYCPK72335

>  <Cat. No.>
HY-100846

>  <Product Name>
JQEZ5

>  <ROW>
E

>  <COLUMN>
4

>  <CAS No.>
1913252-04-6

>  <MWt>
542.68

>  <Target>
Histone Methyltransferase

>  <Saltdate>
Free Base

>  <Smiles>
CC(N1N=CC2=C(C(NCC3=C(C=C(NC3=O)C)CCC)=O)C=C(C4=CC=C(N=C4)N5CCN(C)CC5)N=C12)C

>  <Solvent>
DMSO Solution

>  <Batch No.>
27396

>  <Quantity>
10mM  * 50uL

>  <Pathway>
Epigenetics

>  <Synonyms>


>  <Formula>
C30H38N8O2

>  <Research_Area>
Cancer

>  <Clinical_Information>
No Development Reported

>  <SUPPLIER>
MedChemExpress

$$$$
Untitled Document
  ChemDraw03131717242D

 27 30  0  0  0  0  0  0  0  0999 V2000
   -2.4982    1.8179    0.0000 C   0  0  0  0  0  0  0  0  0  0  0  0
   -2.4982    0.9928    0.0000 C   0  0  0  0  0  0  0  0  0  0  0  0
   -1.7837    0.5803    0.0000 C   0  0  0  0  0  0  0  0  0  0  0  0
   -1.0692    0.9928    0.0000 C   0  0  0  0  0  0  0  0  0  0  0  0
   -1.0692    1.8179    0.0000 C   0  0  0  0  0  0  0  0  0  0  0  0
   -1.7837    2.2304    0.0000 C   0  0  0  0  0  0  0  0  0  0  0  0
   -0.3548    0.5803    0.0000 C   0  0  0  0  0  0  0  0  0  0  0  0
    0.3597    0.9928    0.0000 N   0  0  0  0  0  0  0  0  0  0  0  0
    0.3597    1.8179    0.0000 N   0  0  0  0  0  0  0  0  0  0  0  0
   -0.3548    2.2304    0.0000 C   0  0  0  0  0  0  0  0  0  0  0  0
    0.9728    2.3699    0.0000 C   0  0  0  0  0  0  0  0  0  0  0  0
    0.6373    3.1236    0.0000 N   0  0  0  0  0  0  0  0  0  0  0  0
   -0.1832    3.0373    0.0000 N   0  0  0  0  0  0  0  0  0  0  0  0
   -0.3548   -0.2418    0.0000 N   0  0  0  0  0  0  0  0  0  0  0  0
    0.3572   -0.6529    0.0000 C   0  0  0  0  0  0  0  0  0  0  0  0
    0.3572   -1.4750    0.0000 C   0  0  0  0  0  0  0  0  0  0  0  0
    1.0692   -0.2418    0.0000 C   0  0  0  0  0  0  0  0  0  0  0  0
   -0.3548   -1.8861    0.0000 N   0  0  0  0  0  0  0  0  0  0  0  0
    1.0692   -1.8861    0.0000 C   0  0  0  0  0  0  0  0  0  0  0  0
   -0.3548   -2.7082    0.0000 C   0  0  0  0  0  0  0  0  0  0  0  0
   -1.0667   -1.4750    0.0000 C   0  0  0  0  0  0  0  0  0  0  0  0
    1.0692   -2.7111    0.0000 C   0  0  0  0  0  0  0  0  0  0  0  0
    1.7837   -3.1236    0.0000 C   0  0  0  0  0  0  0  0  0  0  0  0
    2.4982   -2.7111    0.0000 C   0  0  0  0  0  0  0  0  0  0  0  0
    2.4982   -1.8861    0.0000 C   0  0  0  0  0  0  0  0  0  0  0  0
    1.7837   -1.4736    0.0000 C   0  0  0  0  0  0  0  0  0  0  0  0
    1.7770    2.1990    0.0000 C   0  0  0  0  0  0  0  0  0  0  0  0
  1  2  1  0      
  2  3  2  0      
  3  4  1  0      
  4  5  2  0      
  5  6  1  0      
  6  1  2  0      
  4  7  1  0      
  7  8  2  0      
  8  9  1  0      
  9 10  1  0      
 10  5  1  0      
  9 11  1  0      
 11 12  2  0      
 12 13  1  0      
 13 10  2  0      
  7 14  1  0      
 14 15  1  0      
 15 16  1  0      
 15 17  1  1      
 16 18  1  0      
 16 19  1  6      
 18 20  1  0      
 18 21  1  0      
 19 22  2  0      
 22 23  1  0      
 23 24  2  0      
 24 25  1  0      
 25 26  2  0      
 26 19  1  0      
 11 27  1  0      
M  END

>  <RackCode>
HYCPK72335

>  <Cat. No.>
HY-101125

>  <Product Name>
L-Moses

>  <ROW>
F

>  <COLUMN>
4

>  <CAS No.>
2079885-05-3

>  <MWt>
360.46

>  <Target>
Epigenetic Reader Domain

>  <Saltdate>
Free Base

>  <Smiles>
C[C@@H]([C@H](C1=CC=CC=C1)N(C)C)NC(C2=C3C=CC=C2)=NN4C3=NN=C4C

>  <Solvent>
DMSO Solution

>  <Batch No.>
250503

>  <Quantity>
10mM  * 50uL

>  <Pathway>
Epigenetics

>  <Synonyms>
L-45

>  <Formula>
C21H24N6

>  <Research_Area>
Cancer

>  <Clinical_Information>
No Development Reported

>  <SUPPLIER>
MedChemExpress

$$$$
Untitled Document
  ChemDraw09251813522D

 34 37  0  0  0  0  0  0  0  0999 V2000
   -1.7862    1.0313    0.0000 O   0  0  0  0  0  0  0  0  0  0  0  0
   -1.7862    0.2062    0.0000 C   0  0  0  0  0  0  0  0  0  0  0  0
   -1.0717   -0.2062    0.0000 N   0  0  0  0  0  0  0  0  0  0  0  0
   -1.0717   -1.0313    0.0000 C   0  0  0  0  0  0  0  0  0  0  0  0
   -0.3572    0.2062    0.0000 C   0  0  0  0  0  0  0  0  0  0  0  0
    0.3572   -0.2062    0.0000 C   0  0  0  0  0  0  0  0  0  0  0  0
    1.0717    0.2062    0.0000 C   0  0  0  0  0  0  0  0  0  0  0  0
    1.7862   -0.2062    0.0000 C   0  0  0  0  0  0  0  0  0  0  0  0
    2.5006    0.2062    0.0000 C   0  0  0  0  0  0  0  0  0  0  0  0
    2.5006    1.0313    0.0000 C   0  0  0  0  0  0  0  0  0  0  0  0
    3.2151    1.4437    0.0000 C   0  0  0  0  0  0  0  0  0  0  0  0
    3.9296    1.0313    0.0000 N   0  0  0  0  0  0  0  0  0  0  0  0
    4.6441    1.4437    0.0000 C   0  0  0  0  0  0  0  0  0  0  0  0
    5.3585    1.0313    0.0000 C   0  0  0  0  0  0  0  0  0  0  0  0
    6.0730    1.4437    0.0000 N   0  0  0  0  0  0  0  0  0  0  0  0
    6.7875    1.0313    0.0000 C   0  0  0  0  0  0  0  0  0  0  0  0
    3.9296    0.2062    0.0000 C   0  0  0  0  0  0  0  0  0  0  0  0
    3.2151   -0.2062    0.0000 C   0  0  0  0  0  0  0  0  0  0  0  0
    1.7862   -1.0313    0.0000 N   0  0  0  0  0  0  0  0  0  0  0  0
    1.0717   -1.4437    0.0000 C   0  0  0  0  0  0  0  0  0  0  0  0
    0.3572   -1.0313    0.0000 C   0  0  0  0  0  0  0  0  0  0  0  0
   -2.5006   -0.2062    0.0000 C   0  0  0  0  0  0  0  0  0  0  0  0
   -2.5006   -1.0313    0.0000 C   0  0  0  0  0  0  0  0  0  0  0  0
   -3.2151   -1.4437    0.0000 C   0  0  0  0  0  0  0  0  0  0  0  0
   -3.9296   -1.0313    0.0000 C   0  0  0  0  0  0  0  0  0  0  0  0
   -3.9296   -0.2062    0.0000 C   0  0  0  0  0  0  0  0  0  0  0  0
   -4.6441    0.2062    0.0000 O   0  0  0  0  0  0  0  0  0  0  0  0
   -5.3585   -0.2062    0.0000 C   0  0  0  0  0  0  0  0  0  0  0  0
   -5.3585   -1.0313    0.0000 C   0  0  0  0  0  0  0  0  0  0  0  0
   -6.0730   -1.4437    0.0000 C   0  0  0  0  0  0  0  0  0  0  0  0
   -6.7875   -1.0313    0.0000 C   0  0  0  0  0  0  0  0  0  0  0  0
   -6.7875   -0.2062    0.0000 C   0  0  0  0  0  0  0  0  0  0  0  0
   -6.0730    0.2062    0.0000 C   0  0  0  0  0  0  0  0  0  0  0  0
   -3.2151    0.2062    0.0000 C   0  0  0  0  0  0  0  0  0  0  0  0
  1  2  2  0      
  2  3  1  0      
  3  4  1  0      
  3  5  1  0      
  5  6  1  0      
  6  7  2  0      
  7  8  1  0      
  8  9  1  0      
  9 10  1  0      
 10 11  1  0      
 11 12  1  0      
 12 13  1  0      
 13 14  1  0      
 14 15  1  0      
 15 16  1  0      
 12 17  1  0      
 17 18  1  0      
  9 18  1  0      
  8 19  2  0      
 19 20  1  0      
 20 21  2  0      
  6 21  1  0      
  2 22  1  0      
 22 23  2  0      
 23 24  1  0      
 24 25  2  0      
 25 26  1  0      
 26 27  1  0      
 27 28  1  0      
 28 29  2  0      
 29 30  1  0      
 30 31  2  0      
 31 32  1  0      
 32 33  2  0      
 28 33  1  0      
 26 34  2  0      
 22 34  1  0      
M  END

>  <RackCode>
HYCPK72335

>  <Cat. No.>
HY-114965

>  <Product Name>
TP-064

>  <ROW>
G

>  <COLUMN>
4

>  <CAS No.>
2080306-20-1

>  <MWt>
458.60

>  <Target>
Histone Methyltransferase

>  <Saltdate>


>  <Smiles>
O=C(C1=CC=CC(OC2=CC=CC=C2)=C1)N(CC3=CC(C4CCN(CC4)CCNC)=NC=C3)C

>  <Solvent>
DMSO Solution

>  <Batch No.>
124730

>  <Quantity>
10mM  * 50uL

>  <Pathway>
Epigenetics

>  <Synonyms>


>  <Formula>
C28H34N4O2

>  <Research_Area>
Cancer; Inflammation/Immunology

>  <Clinical_Information>
No Development Reported

>  <SUPPLIER>
MedChemExpress

$$$$
Untitled Document
  ChemDraw10121716282D

 12 12  0  0  0  0  0  0  0  0999 V2000
    0.7145   -0.4125    0.0000 C   0  0  0  0  0  0  0  0  0  0  0  0
    0.0000   -0.8250    0.0000 C   0  0  0  0  0  0  0  0  0  0  0  0
   -0.7145   -0.4125    0.0000 C   0  0  0  0  0  0  0  0  0  0  0  0
   -0.7145    0.4125    0.0000 C   0  0  0  0  0  0  0  0  0  0  0  0
    0.0000    0.8250    0.0000 C   0  0  0  0  0  0  0  0  0  0  0  0
    0.7145    0.4125    0.0000 C   0  0  0  0  0  0  0  0  0  0  0  0
    1.4289    0.8250    0.0000 Br  0  0  0  0  0  0  0  0  0  0  0  0
    0.0000    1.6500    0.0000 Br  0  0  0  0  0  0  0  0  0  0  0  0
   -1.4289    0.8250    0.0000 Br  0  0  0  0  0  0  0  0  0  0  0  0
   -1.4289   -0.8250    0.0000 Br  0  0  0  0  0  0  0  0  0  0  0  0
    0.0000   -1.6500    0.0000 Br  0  0  0  0  0  0  0  0  0  0  0  0
    1.4289   -0.8250    0.0000 Br  0  0  0  0  0  0  0  0  0  0  0  0
  1  2  1  0      
  2  3  1  0      
  3  4  1  0      
  4  5  1  0      
  5  6  1  0      
  1  6  1  0      
  6  7  1  0      
  5  8  1  0      
  4  9  1  0      
  3 10  1  0      
  2 11  1  0      
  1 12  1  0      
M  END

>  <RackCode>
HYCPK72335

>  <Cat. No.>
HY-107594

>  <Product Name>
Benzene hexabromide

>  <ROW>
H

>  <COLUMN>
4

>  <CAS No.>
1837-91-8

>  <MWt>
557.54

>  <Target>
JAK

>  <Saltdate>


>  <Smiles>
BrC1C(Br)C(Br)C(Br)C(Br)C1Br

>  <Solvent>
DMSO Solution

>  <Batch No.>
278695

>  <Quantity>
10mM  * 50uL

>  <Pathway>
Epigenetics; JAK/STAT Signaling; Protein Tyrosine Kinase/RTK; Stem Cell/Wnt

>  <Synonyms>


>  <Formula>
C6H6Br6

>  <Research_Area>
Cancer

>  <Clinical_Information>
No Development Reported

>  <SUPPLIER>
MedChemExpress

$$$$
Untitled Document
  ChemDraw05151915592D

 39 40  0  0  0  0  0  0  0  0999 V2000
    1.7332    2.5977    0.0000 N   0  0  0  0  0  0  0  0  0  0  0  0
    2.4476    2.1852    0.0000 C   0  0  0  0  0  0  0  0  0  0  0  0
    2.4476    1.3602    0.0000 C   0  0  0  0  0  0  0  0  0  0  0  0
    1.7332    0.9477    0.0000 C   0  0  0  0  0  0  0  0  0  0  0  0
    1.0187    1.3602    0.0000 C   0  0  0  0  0  0  0  0  0  0  0  0
    0.3042    0.9477    0.0000 C   0  0  0  0  0  0  0  0  0  0  0  0
   -0.4102    1.3602    0.0000 C   0  0  0  0  0  0  0  0  0  0  0  0
   -0.4102    2.1852    0.0000 C   0  0  0  0  0  0  0  0  0  0  0  0
    0.3042    2.5977    0.0000 C   0  0  0  0  0  0  0  0  0  0  0  0
    1.0187    2.1852    0.0000 C   0  0  0  0  0  0  0  0  0  0  0  0
    1.7332    0.1227    0.0000 N   0  0  0  0  0  0  0  0  0  0  0  0
   -1.1247    2.5977    0.0000 O   0  0  0  0  0  0  0  0  0  0  0  0
   -1.8392    2.1852    0.0000 C   0  0  0  0  0  0  0  0  0  0  0  0
   -2.5537    2.5977    0.0000 C   0  0  0  0  0  0  0  0  0  0  0  0
   -3.2681    2.1852    0.0000 C   0  0  0  0  0  0  0  0  0  0  0  0
   -3.9826    2.5977    0.0000 N   0  0  0  0  0  0  0  0  0  0  0  0
   -4.7363    2.2622    0.0000 C   0  0  0  0  0  0  0  0  0  0  0  0
   -5.2883    2.8753    0.0000 C   0  0  0  0  0  0  0  0  0  0  0  0
   -4.8758    3.5898    0.0000 C   0  0  0  0  0  0  0  0  0  0  0  0
   -4.0688    3.4182    0.0000 C   0  0  0  0  0  0  0  0  0  0  0  0
    2.4476   -0.2898    0.0000 C   0  0  0  0  0  0  0  0  0  0  0  0
    2.4476   -2.7648    0.0000 N   0  0  0  0  0  0  0  0  0  0  0  0
    1.7332   -2.3523    0.0000 C   0  0  0  0  0  0  0  0  0  0  0  0
    1.7332   -1.5273    0.0000 C   0  0  0  0  0  0  0  0  0  0  0  0
    2.4476   -1.1148    0.0000 C   0  0  0  0  0  0  0  0  0  0  0  0
    3.1621   -1.5273    0.0000 C   0  0  0  0  0  0  0  0  0  0  0  0
    3.1621   -2.3523    0.0000 C   0  0  0  0  0  0  0  0  0  0  0  0
    2.4476   -3.5898    0.0000 C   0  0  0  0  0  0  0  0  0  0  0  0
    3.9158    2.2622    0.0000 O   0  0  0  0  0  0  0  0  0  0  0  0
    3.1621    2.5977    0.0000 C   0  0  0  0  0  0  0  0  0  0  0  0
    3.2484    3.4182    0.0000 C   0  0  0  0  0  0  0  0  0  0  0  0
    4.0553    3.5898    0.0000 C   0  0  0  0  0  0  0  0  0  0  0  0
    4.4678    2.8753    0.0000 C   0  0  0  0  0  0  0  0  0  0  0  0
    5.2883    2.7890    0.0000 C   0  0  0  0  0  0  0  0  0  0  0  0
   -1.1247    0.9477    0.0000 O   0  0  0  0  0  0  0  0  0  0  0  0
   -1.8392    1.3602    0.0000 C   0  0  0  0  0  0  0  0  0  0  0  0
   -1.2288   -0.7594    0.0000 Cl  0  0  0  0  0  0  0  0  0  0  0  0
   -1.2288   -1.4184    0.0000 Cl  0  0  0  0  0  0  0  0  0  0  0  0
   -1.2288   -2.1323    0.0000 Cl  0  0  0  0  0  0  0  0  0  0  0  0
  1  2  2  0      
  2  3  1  0      
  3  4  2  0      
  4  5  1  0      
  5  6  2  0      
  6  7  1  0      
  7  8  2  0      
  8  9  1  0      
  9 10  2  0      
  1 10  1  0      
  5 10  1  0      
  4 11  1  0      
 13 14  1  0      
 14 15  1  0      
 12 13  1  0      
 16 17  1  0      
 17 18  1  0      
 18 19  1  0      
 19 20  1  0      
 16 20  1  0      
 15 16  1  0      
  8 12  1  0      
 22 23  1  0      
 23 24  1  0      
 24 25  1  0      
 25 26  1  0      
 26 27  1  0      
 22 27  1  0      
 22 28  1  0      
 21 25  1  0      
 11 21  1  0      
 29 30  1  0      
 30 31  2  0      
 31 32  1  0      
 32 33  2  0      
 29 33  1  0      
 33 34  1  0      
  2 30  1  0      
 35 36  1  0      
  7 35  1  0      
M  END

>  <RackCode>
HYCPK72335

>  <Cat. No.>
HY-117421A

>  <Product Name>
CM-579 trihydrochloride

>  <ROW>
I

>  <COLUMN>
4

>  <CAS No.>
2448471-08-5

>  <MWt>
602.04

>  <Target>
DNA Methyltransferase; Histone Methyltransferase

>  <Saltdate>
Hydrochloride

>  <Smiles>
CN1CCC(CNC2=CC(C3=CC=C(C)O3)=NC4=CC(OCCCN5CCCC5)=C(OC)C=C24)CC1.Cl.Cl.Cl

>  <Solvent>
DMSO Solution

>  <Batch No.>
102505

>  <Quantity>
10mM  * 50uL

>  <Pathway>
Epigenetics

>  <Synonyms>


>  <Formula>
C29H43Cl3N4O3

>  <Research_Area>
Cancer

>  <Clinical_Information>
No Development Reported

>  <SUPPLIER>
MedChemExpress

$$$$
Untitled Document
  ChemDraw05271908492D

 24 27  0  0  0  0  0  0  0  0999 V2000
   -1.9088    1.7951    0.0000 C   0  0  0  0  0  0  0  0  0  0  0  0
   -2.3213    1.0807    0.0000 C   0  0  0  0  0  0  0  0  0  0  0  0
   -1.9088    0.3662    0.0000 C   0  0  0  0  0  0  0  0  0  0  0  0
   -1.0838    0.3662    0.0000 C   0  0  0  0  0  0  0  0  0  0  0  0
   -0.6713    1.0807    0.0000 C   0  0  0  0  0  0  0  0  0  0  0  0
   -1.0838    1.7951    0.0000 C   0  0  0  0  0  0  0  0  0  0  0  0
   -3.1434    1.0807    0.0000 C   0  0  0  0  0  0  0  0  0  0  0  0
   -3.8628    1.4845    0.0000 O   0  0  0  0  0  0  0  0  0  0  0  0
   -3.8911    0.6609    0.0000 C   0  0  0  0  0  0  0  0  0  0  0  0
    0.1509    1.0807    0.0000 C   0  0  0  0  0  0  0  0  0  0  0  0
    0.5619    0.3687    0.0000 N   0  0  0  0  0  0  0  0  0  0  0  0
    0.1494   -0.3458    0.0000 C   0  0  0  0  0  0  0  0  0  0  0  0
    0.5619   -1.0603    0.0000 C   0  0  0  0  0  0  0  0  0  0  0  0
    1.3869   -1.0603    0.0000 C   0  0  0  0  0  0  0  0  0  0  0  0
    1.7994   -0.3458    0.0000 C   0  0  0  0  0  0  0  0  0  0  0  0
    1.3869    0.3687    0.0000 C   0  0  0  0  0  0  0  0  0  0  0  0
   -0.6727   -0.3458    0.0000 O   0  0  0  0  0  0  0  0  0  0  0  0
    2.6216   -0.3458    0.0000 C   0  0  0  0  0  0  0  0  0  0  0  0
    3.1065   -1.0132    0.0000 C   0  0  0  0  0  0  0  0  0  0  0  0
    3.8911   -0.7583    0.0000 O   0  0  0  0  0  0  0  0  0  0  0  0
    3.8911    0.0667    0.0000 N   0  0  0  0  0  0  0  0  0  0  0  0
    3.1065    0.3216    0.0000 C   0  0  0  0  0  0  0  0  0  0  0  0
    2.8525    1.1035    0.0000 C   0  0  0  0  0  0  0  0  0  0  0  0
    2.8525   -1.7951    0.0000 C   0  0  0  0  0  0  0  0  0  0  0  0
  1  2  2  0      
  2  3  1  0      
  3  4  2  0      
  4  5  1  0      
  5  6  2  0      
  6  1  1  0      
  2  7  1  0      
  7  8  1  0      
  8  9  1  0      
  9  7  1  0      
  5 10  1  0      
 10 11  1  0      
 11 12  1  0      
 12 13  1  0      
 13 14  2  0      
 14 15  1  0      
 15 16  2  0      
 16 11  1  0      
 12 17  2  0      
 15 18  1  0      
 18 19  2  0      
 19 20  1  0      
 20 21  1  0      
 21 22  2  0      
 22 18  1  0      
 22 23  1  0      
 19 24  1  0      
M  END

>  <RackCode>
HYCPK72335

>  <Cat. No.>
HY-111977

>  <Product Name>
ZEN-3219

>  <ROW>
J

>  <COLUMN>
4

>  <CAS No.>
1952264-34-4

>  <MWt>
322.36

>  <Target>
Epigenetic Reader Domain

>  <Saltdate>
Free Base

>  <Smiles>
O=C(C=CC(C1=C(C)ON=C1C)=C2)N2CC3=CC=C(C4OC4)C=C3

>  <Solvent>
DMSO Solution

>  <Batch No.>
312870

>  <Quantity>
10mM  * 50uL

>  <Pathway>
Epigenetics

>  <Synonyms>


>  <Formula>
C19H18N2O3

>  <Research_Area>
Cancer

>  <Clinical_Information>
No Development Reported

>  <SUPPLIER>
MedChemExpress

$$$$
Untitled Document
  ChemDraw12061909292D

 20 21  0  0  0  0  0  0  0  0999 V2000
   -2.5485    0.3356    0.0000 O   0  0  0  0  0  0  0  0  0  0  0  0
   -1.7948    0.0000    0.0000 C   0  0  0  0  0  0  0  0  0  0  0  0
   -1.8810   -0.8205    0.0000 C   0  0  0  0  0  0  0  0  0  0  0  0
   -2.6880   -0.9920    0.0000 C   0  0  0  0  0  0  0  0  0  0  0  0
   -3.1005   -0.2775    0.0000 C   0  0  0  0  0  0  0  0  0  0  0  0
   -1.0803    0.4125    0.0000 C   0  0  0  0  0  0  0  0  0  0  0  0
   -1.0803    1.2375    0.0000 O   0  0  0  0  0  0  0  0  0  0  0  0
   -0.3658    0.0000    0.0000 O   0  0  0  0  0  0  0  0  0  0  0  0
   -3.9210   -0.1913    0.0000 O   0  0  0  0  0  0  0  0  0  0  0  0
    0.3486    0.4125    0.0000 C   0  0  0  0  0  0  0  0  0  0  0  0
    1.0631    0.0000    0.0000 C   0  0  0  0  0  0  0  0  0  0  0  0
    1.7776    0.4125    0.0000 C   0  0  0  0  0  0  0  0  0  0  0  0
    2.4920    0.0000    0.0000 C   0  0  0  0  0  0  0  0  0  0  0  0
    2.4920   -0.8250    0.0000 C   0  0  0  0  0  0  0  0  0  0  0  0
    1.7776   -1.2375    0.0000 C   0  0  0  0  0  0  0  0  0  0  0  0
    1.0631   -0.8250    0.0000 C   0  0  0  0  0  0  0  0  0  0  0  0
    3.2065    0.4125    0.0000 C   0  0  0  0  0  0  0  0  0  0  0  0
    3.9210    0.8250    0.0000 F   0  0  0  0  0  0  0  0  0  0  0  0
    3.2065    1.2375    0.0000 F   0  0  0  0  0  0  0  0  0  0  0  0
    3.9210    0.0000    0.0000 F   0  0  0  0  0  0  0  0  0  0  0  0
  1  2  1  0      
  2  3  1  0      
  3  4  1  0      
  4  5  1  0      
  1  5  1  0      
  6  7  2  0      
  6  8  1  0      
  2  6  1  6      
  5  9  2  0      
 11 12  1  0      
 12 13  2  0      
 13 14  1  0      
 14 15  2  0      
 15 16  1  0      
 11 16  2  0      
 17 18  1  0      
 17 19  1  0      
 17 20  1  0      
 13 17  1  0      
 10 11  1  0      
  8 10  1  0      
M  END

>  <RackCode>
HYCPK72335

>  <Cat. No.>
HY-129079A

>  <Product Name>
TFMB-(S)-2-HG

>  <ROW>
K

>  <COLUMN>
4

>  <CAS No.>
1445703-64-9

>  <MWt>
288.22

>  <Target>
DNA Methyltransferase

>  <Saltdate>


>  <Smiles>
O=C([C@H](CC1)OC1=O)OCC2=CC=CC(C(F)(F)F)=C2

>  <Solvent>
DMSO Solution

>  <Batch No.>
239515

>  <Quantity>
10mM  * 50uL

>  <Pathway>
Epigenetics

>  <Synonyms>


>  <Formula>
C13H11F3O4

>  <Research_Area>
Cancer

>  <Clinical_Information>
No Development Reported

>  <SUPPLIER>
MedChemExpress

$$$$
Untitled Document
  ChemDraw08312013392D

 32 34  0  0  0  0  0  0  0  0999 V2000
    1.0717   -0.8250    0.0000 C   0  0  0  0  0  0  0  0  0  0  0  0
    1.7862   -0.4125    0.0000 C   0  0  0  0  0  0  0  0  0  0  0  0
    2.5006   -0.8250    0.0000 C   0  0  0  0  0  0  0  0  0  0  0  0
    1.0717   -1.6500    0.0000 O   0  0  0  0  0  0  0  0  0  0  0  0
    0.3572   -0.4125    0.0000 C   0  0  0  0  0  0  0  0  0  0  0  0
    0.3572    0.4125    0.0000 C   0  0  0  0  0  0  0  0  0  0  0  0
   -0.3572    0.8250    0.0000 C   0  0  0  0  0  0  0  0  0  0  0  0
   -1.0717    0.4125    0.0000 C   0  0  0  0  0  0  0  0  0  0  0  0
   -1.0717   -0.4125    0.0000 C   0  0  0  0  0  0  0  0  0  0  0  0
   -0.3572   -0.8250    0.0000 C   0  0  0  0  0  0  0  0  0  0  0  0
   -0.3572    1.6500    0.0000 O   0  0  0  0  0  0  0  0  0  0  0  0
    1.0717    0.8250    0.0000 O   0  0  0  0  0  0  0  0  0  0  0  0
   -1.7862    0.8250    0.0000 O   0  0  0  0  0  0  0  0  0  0  0  0
   -2.5006    0.4125    0.0000 C   0  0  0  0  0  0  0  0  0  0  0  0
   -2.5006   -0.4125    0.0000 C   0  0  0  0  0  0  0  0  0  0  0  0
   -1.7862   -0.8250    0.0000 O   0  0  0  0  0  0  0  0  0  0  0  0
   -3.2151   -0.8250    0.0000 C   0  0  0  0  0  0  0  0  0  0  0  0
   -3.2151   -1.6500    0.0000 O   0  0  0  0  0  0  0  0  0  0  0  0
   -3.9296   -0.4125    0.0000 C   0  0  0  0  0  0  0  0  0  0  0  0
   -4.6441   -0.8250    0.0000 O   0  0  0  0  0  0  0  0  0  0  0  0
   -3.9296    0.4125    0.0000 C   0  0  0  0  0  0  0  0  0  0  0  0
   -3.2151    0.8250    0.0000 O   0  0  0  0  0  0  0  0  0  0  0  0
   -4.6441    0.8250    0.0000 C   0  0  0  0  0  0  0  0  0  0  0  0
   -5.3585    0.4125    0.0000 O   0  0  0  0  0  0  0  0  0  0  0  0
    3.2151   -0.4125    0.0000 C   0  0  0  0  0  0  0  0  0  0  0  0
    3.9296   -0.8250    0.0000 C   0  0  0  0  0  0  0  0  0  0  0  0
    4.6441   -0.4125    0.0000 C   0  0  0  0  0  0  0  0  0  0  0  0
    4.6441    0.4125    0.0000 C   0  0  0  0  0  0  0  0  0  0  0  0
    3.9296    0.8250    0.0000 C   0  0  0  0  0  0  0  0  0  0  0  0
    3.2151    0.4125    0.0000 C   0  0  0  0  0  0  0  0  0  0  0  0
    5.3585    0.8250    0.0000 O   0  0  0  0  0  0  0  0  0  0  0  0
    5.3585   -0.8250    0.0000 O   0  0  0  0  0  0  0  0  0  0  0  0
  1  2  1  0      
  2  3  2  0      
  1  4  2  0      
  5  6  1  0      
  6  7  2  0      
  7  8  1  0      
  8  9  2  0      
  9 10  1  0      
  5 10  2  0      
  7 11  1  0      
  6 12  1  0      
 14 15  1  0      
 15 16  1  6      
 15 17  1  0      
 17 18  1  1      
 17 19  1  0      
 19 20  1  6      
 19 21  1  0      
 21 22  1  0      
 21 23  1  1      
 23 24  1  0      
 14 22  1  0      
 14 13  1  1      
  8 13  1  0      
  1  5  1  0      
 25 26  1  0      
 26 27  2  0      
 27 28  1  0      
 28 29  2  0      
 29 30  1  0      
 25 30  2  0      
 28 31  1  0      
 27 32  1  0      
  3 25  1  0      
M  END

>  <RackCode>
HYCPK72335

>  <Cat. No.>
HY-N7676

>  <Product Name>
Marein

>  <ROW>
L

>  <COLUMN>
4

>  <CAS No.>
535-96-6

>  <MWt>
450.39

>  <Target>
AMPK; HDAC

>  <Saltdate>


>  <Smiles>
O=C(C1=CC=C(O[C@H]2[C@@H]([C@H]([C@@H]([C@@H](CO)O2)O)O)O)C(O)=C1O)/C=C/C3=CC=C(O)C(O)=C3

>  <Solvent>
DMSO Solution

>  <Batch No.>
189961

>  <Quantity>
10mM  * 50uL

>  <Pathway>
Cell Cycle/DNA Damage; Epigenetics; PI3K/Akt/mTOR

>  <Synonyms>


>  <Formula>
C21H22O11

>  <Research_Area>
Metabolic Disease; Neurological Disease; Cardiovascular Disease

>  <Clinical_Information>
No Development Reported

>  <SUPPLIER>
MedChemExpress

$$$$
Untitled Document
  ChemDraw08102313122D

 27 29  0  0  0  0  0  0  0  0999 V2000
    2.1435    3.3001    0.0000 C   0  0  0  0  0  0  0  0  0  0  0  0
    1.4290    2.8876    0.0000 C   0  0  0  0  0  0  0  0  0  0  0  0
    1.4290    2.0625    0.0000 C   0  0  0  0  0  0  0  0  0  0  0  0
    2.1435    1.6501    0.0000 C   0  0  0  0  0  0  0  0  0  0  0  0
    2.8580    2.0625    0.0000 C   0  0  0  0  0  0  0  0  0  0  0  0
    2.8580    2.8876    0.0000 C   0  0  0  0  0  0  0  0  0  0  0  0
    0.7145    1.6501    0.0000 O   0  0  0  0  0  0  0  0  0  0  0  0
    0.7145    0.8250    0.0000 C   0  0  0  0  0  0  0  0  0  0  0  0
   -0.0000    0.4125    0.0000 C   0  0  0  0  0  0  0  0  0  0  0  0
   -0.0000   -0.4125    0.0000 C   0  0  0  0  0  0  0  0  0  0  0  0
   -0.7145    0.8250    0.0000 O   0  0  0  0  0  0  0  0  0  0  0  0
    3.5725    3.3001    0.0000 Br  0  0  0  0  0  0  0  0  0  0  0  0
   -0.7145   -0.8250    0.0000 N   0  0  0  0  0  0  0  0  0  0  0  0
   -2.1435   -0.8250    0.0000 C   0  0  0  0  0  0  0  0  0  0  0  0
   -2.8580   -0.4125    0.0000 C   0  0  0  0  0  0  0  0  0  0  0  0
   -3.5725   -0.8250    0.0000 C   0  0  0  0  0  0  0  0  0  0  0  0
   -3.5725   -1.6501    0.0000 C   0  0  0  0  0  0  0  0  0  0  0  0
   -2.8580   -2.0625    0.0000 C   0  0  0  0  0  0  0  0  0  0  0  0
   -2.1435   -1.6501    0.0000 C   0  0  0  0  0  0  0  0  0  0  0  0
   -1.4290   -0.4125    0.0000 C   0  0  0  0  0  0  0  0  0  0  0  0
   -0.0000   -2.0625    0.0000 C   0  0  0  0  0  0  0  0  0  0  0  0
   -0.0000   -2.8876    0.0000 C   0  0  0  0  0  0  0  0  0  0  0  0
    0.7145   -3.3001    0.0000 C   0  0  0  0  0  0  0  0  0  0  0  0
    1.4290   -2.8876    0.0000 C   0  0  0  0  0  0  0  0  0  0  0  0
    1.4290   -2.0625    0.0000 C   0  0  0  0  0  0  0  0  0  0  0  0
    0.7145   -1.6501    0.0000 C   0  0  0  0  0  0  0  0  0  0  0  0
   -0.7145   -1.6501    0.0000 C   0  0  0  0  0  0  0  0  0  0  0  0
  1  2  2  0      
  2  3  1  0      
  3  4  2  0      
  4  5  1  0      
  5  6  2  0      
  6  1  1  0      
  3  7  1  0      
  7  8  1  0      
  8  9  1  0      
  9 10  1  0      
  9 11  1  0      
 10 13  1  0      
  6 12  1  0      
 13 20  1  0      
 13 27  1  0      
 14 15  2  0      
 15 16  1  0      
 16 17  2  0      
 17 18  1  0      
 18 19  2  0      
 14 19  1  0      
 14 20  1  0      
 21 22  2  0      
 22 23  1  0      
 23 24  2  0      
 24 25  1  0      
 25 26  2  0      
 21 26  1  0      
 21 27  1  0      
M  END

>  <RackCode>
HYCPK72335

>  <Cat. No.>
HY-149406

>  <Product Name>
AMPK activator 12

>  <ROW>
M

>  <COLUMN>
4

>  <CAS No.>
431920-24-0

>  <MWt>
426.35

>  <Target>
AMPK

>  <Saltdate>


>  <Smiles>
OC(CN(CC1=CC=CC=C1)CC2=CC=CC=C2)COC3=CC=C(Br)C=C3

>  <Solvent>
DMSO Solution

>  <Batch No.>
314006

>  <Quantity>
10mM  * 50uL

>  <Pathway>
Epigenetics; PI3K/Akt/mTOR

>  <Synonyms>


>  <Formula>
C23H24BrNO2

>  <Research_Area>
Cancer

>  <Clinical_Information>
No Development Reported

>  <SUPPLIER>
MedChemExpress

$$$$
Untitled Document
  ChemDraw10082113282D

 29 33  0  0  0  0  0  0  0  0999 V2000
    1.4842   -1.5260    0.0000 O   0  0  0  0  0  0  0  0  0  0  0  0
    1.0717   -0.8115    0.0000 S   0  0  0  0  0  0  0  0  0  0  0  0
    0.6592   -0.0970    0.0000 O   0  0  0  0  0  0  0  0  0  0  0  0
    0.3572   -1.2240    0.0000 C   0  0  0  0  0  0  0  0  0  0  0  0
    0.3572   -2.0489    0.0000 C   0  0  0  0  0  0  0  0  0  0  0  0
   -0.3572   -2.4614    0.0000 C   0  0  0  0  0  0  0  0  0  0  0  0
   -1.0717   -2.0489    0.0000 C   0  0  0  0  0  0  0  0  0  0  0  0
   -1.0717   -1.2240    0.0000 C   0  0  0  0  0  0  0  0  0  0  0  0
   -0.3572   -0.8115    0.0000 C   0  0  0  0  0  0  0  0  0  0  0  0
   -1.7862   -2.4614    0.0000 C   0  0  0  0  0  0  0  0  0  0  0  0
   -1.8723   -3.2819    0.0000 C   0  0  0  0  0  0  0  0  0  0  0  0
   -2.6793   -3.4534    0.0000 S   0  0  0  0  0  0  0  0  0  0  0  0
   -3.0918   -2.7389    0.0000 C   0  0  0  0  0  0  0  0  0  0  0  0
   -2.5398   -2.1258    0.0000 C   0  0  0  0  0  0  0  0  0  0  0  0
    1.7862   -0.3990    0.0000 N   0  0  0  0  0  0  0  0  0  0  0  0
    1.8723    0.4215    0.0000 C   0  0  0  0  0  0  0  0  0  0  0  0
    2.6793    0.5930    0.0000 N   0  0  0  0  0  0  0  0  0  0  0  0
    3.0918   -0.1214    0.0000 C   0  0  0  0  0  0  0  0  0  0  0  0
    2.5398   -0.7345    0.0000 C   0  0  0  0  0  0  0  0  0  0  0  0
    1.2593    0.9735    0.0000 N   0  0  0  0  0  0  0  0  0  0  0  0
    0.4747    0.7186    0.0000 C   0  0  0  0  0  0  0  0  0  0  0  0
   -0.1384    1.2706    0.0000 C   0  0  0  0  0  0  0  0  0  0  0  0
    0.0331    2.0775    0.0000 N   0  0  0  0  0  0  0  0  0  0  0  0
    0.8178    2.3324    0.0000 C   0  0  0  0  0  0  0  0  0  0  0  0
    1.4308    1.7805    0.0000 C   0  0  0  0  0  0  0  0  0  0  0  0
   -0.5800    2.6295    0.0000 C   0  0  0  0  0  0  0  0  0  0  0  0
   -1.4038    2.5863    0.0000 C   0  0  0  0  0  0  0  0  0  0  0  0
   -1.4470    3.4102    0.0000 C   0  0  0  0  0  0  0  0  0  0  0  0
   -0.6231    3.4534    0.0000 C   0  0  0  0  0  0  0  0  0  0  0  0
  1  2  2  0      
  2  3  2  0      
  2  4  1  0      
  4  5  2  0      
  5  6  1  0      
  6  7  2  0      
  7  8  1  0      
  8  9  2  0      
  4  9  1  0      
  7 10  1  0      
 10 11  2  0      
 11 12  1  0      
 12 13  1  0      
 13 14  2  0      
 10 14  1  0      
  2 15  1  0      
 15 16  1  0      
 16 17  2  0      
 17 18  1  0      
 18 19  1  0      
 15 19  1  0      
 16 20  1  0      
 20 21  1  0      
 21 22  1  0      
 22 23  1  0      
 23 24  1  0      
 24 25  1  0      
 20 25  1  0      
 23 26  1  0      
 26 27  1  0      
 27 28  1  0      
 28 29  1  0      
 26 29  1  0      
M  END

>  <RackCode>
HYCPK72335

>  <Cat. No.>
HY-139561

>  <Product Name>
KDM2B-IN-2

>  <ROW>
N

>  <COLUMN>
4

>  <CAS No.>
1965248-01-4

>  <MWt>
430.59

>  <Target>
Histone Demethylase

>  <Saltdate>


>  <Smiles>
O=S(C1=CC=C(C2=CSC=C2)C=C1)(N3C(N4CCN(C5CCC5)CC4)=NCC3)=O

>  <Solvent>
DMSO Solution

>  <Batch No.>
179035

>  <Quantity>
10mM  * 50uL

>  <Pathway>
Epigenetics

>  <Synonyms>


>  <Formula>
C21H26N4O2S2

>  <Research_Area>
Cancer; Inflammation/Immunology

>  <Clinical_Information>
No Development Reported

>  <SUPPLIER>
MedChemExpress

$$$$
Untitled Document
  ChemDraw08072310142D

 30 32  0  0  0  0  0  0  0  0999 V2000
    0.3572    1.6500    0.0000 C   0  0  0  0  0  0  0  0  0  0  0  0
   -0.3572    1.2375    0.0000 C   0  0  0  0  0  0  0  0  0  0  0  0
   -0.3572    0.4125    0.0000 C   0  0  0  0  0  0  0  0  0  0  0  0
    0.3572    2.4749    0.0000 O   0  0  0  0  0  0  0  0  0  0  0  0
    1.0717    1.2375    0.0000 O   0  0  0  0  0  0  0  0  0  0  0  0
   -1.7861    0.4125    0.0000 N   0  0  0  0  0  0  0  0  0  0  0  0
   -1.0717    0.0000    0.0000 C   0  0  0  0  0  0  0  0  0  0  0  0
   -1.0717   -0.8250    0.0000 N   0  0  0  0  0  0  0  0  0  0  0  0
   -1.7861   -1.2375    0.0000 C   0  0  0  0  0  0  0  0  0  0  0  0
   -2.5005   -0.8250    0.0000 C   0  0  0  0  0  0  0  0  0  0  0  0
   -3.2150   -1.2375    0.0000 C   0  0  0  0  0  0  0  0  0  0  0  0
   -3.9295   -0.8250    0.0000 C   0  0  0  0  0  0  0  0  0  0  0  0
   -3.9295    0.0000    0.0000 C   0  0  0  0  0  0  0  0  0  0  0  0
   -3.2150    0.4125    0.0000 C   0  0  0  0  0  0  0  0  0  0  0  0
   -2.5005    0.0000    0.0000 C   0  0  0  0  0  0  0  0  0  0  0  0
   -1.7861   -2.0624    0.0000 O   0  0  0  0  0  0  0  0  0  0  0  0
   -0.3572   -1.2375    0.0000 C   0  0  0  0  0  0  0  0  0  0  0  0
    0.3572   -0.8250    0.0000 C   0  0  0  0  0  0  0  0  0  0  0  0
    0.3572    0.0000    0.0000 O   0  0  0  0  0  0  0  0  0  0  0  0
    1.0717   -1.2375    0.0000 N   0  0  0  0  0  0  0  0  0  0  0  0
    1.7861   -0.8250    0.0000 C   0  0  0  0  0  0  0  0  0  0  0  0
    2.5005   -1.2375    0.0000 C   0  0  0  0  0  0  0  0  0  0  0  0
    2.5005   -2.0624    0.0000 C   0  0  0  0  0  0  0  0  0  0  0  0
    3.2150   -2.4749    0.0000 C   0  0  0  0  0  0  0  0  0  0  0  0
    3.9295   -2.0624    0.0000 C   0  0  0  0  0  0  0  0  0  0  0  0
    3.9295   -1.2375    0.0000 C   0  0  0  0  0  0  0  0  0  0  0  0
    3.2150   -0.8250    0.0000 C   0  0  0  0  0  0  0  0  0  0  0  0
    1.7861   -2.4749    0.0000 O   0  0  0  0  0  0  0  0  0  0  0  0
    1.0717   -2.0624    0.0000 C   0  0  0  0  0  0  0  0  0  0  0  0
   -3.2150    1.2375    0.0000 Cl  0  0  0  0  0  0  0  0  0  0  0  0
  1  2  1  0      
  2  3  1  0      
  1  4  2  0      
  1  5  1  0      
  6  7  2  0      
  7  8  1  0      
  8  9  1  0      
  9 10  1  0      
 10 11  1  0      
 11 12  2  0      
 12 13  1  0      
 13 14  2  0      
 14 15  1  0      
  6 15  1  0      
 10 15  2  0      
  9 16  2  0      
 17 18  1  0      
 18 19  2  0      
 21 22  1  0      
 22 23  1  0      
 23 24  2  0      
 24 25  1  0      
 25 26  2  0      
 26 27  1  0      
 22 27  2  0      
 28 29  1  0      
 23 28  1  0      
 20 21  1  0      
 18 20  1  0      
  8 17  1  0      
 14 30  1  0      
  3  7  1  0      
M  END

>  <RackCode>
HYCPK72335

>  <Cat. No.>
HY-155697

>  <Product Name>
SGC-UBD253

>  <ROW>
O

>  <COLUMN>
4

>  <CAS No.>


>  <MWt>
429.85

>  <Target>
HDAC

>  <Saltdate>


>  <Smiles>
O=C(O)CCC(N1CC(NCC2=CC=CC=C2OC)=O)=NC3=C(C=CC=C3Cl)C1=O

>  <Solvent>
DMSO Solution

>  <Batch No.>
422449

>  <Quantity>
10mM  * 50uL

>  <Pathway>
Cell Cycle/DNA Damage; Epigenetics

>  <Synonyms>


>  <Formula>
C21H20ClN3O5

>  <Research_Area>
Cancer

>  <Clinical_Information>
No Development Reported

>  <SUPPLIER>
MedChemExpress

$$$$
Untitled Document
  ChemDraw09182115322D

 40 43  0  0  0  0  0  0  0  0999 V2000
   -6.0045    0.9286    0.0000 C   0  0  0  0  0  0  0  0  0  0  0  0
   -6.0045    0.1036    0.0000 C   0  0  0  0  0  0  0  0  0  0  0  0
   -5.2900   -0.3089    0.0000 C   0  0  0  0  0  0  0  0  0  0  0  0
   -4.5756    0.1036    0.0000 C   0  0  0  0  0  0  0  0  0  0  0  0
   -4.5756    0.9286    0.0000 C   0  0  0  0  0  0  0  0  0  0  0  0
   -5.2900    1.3411    0.0000 C   0  0  0  0  0  0  0  0  0  0  0  0
   -6.7189   -0.3089    0.0000 C   0  0  0  0  0  0  0  0  0  0  0  0
   -3.8611   -0.3089    0.0000 N   0  0  0  0  0  0  0  0  0  0  0  0
   -7.4334    0.1036    0.0000 F   0  0  0  0  0  0  0  0  0  0  0  0
   -6.7189   -1.1339    0.0000 F   0  0  0  0  0  0  0  0  0  0  0  0
   -7.4334   -0.7214    0.0000 F   0  0  0  0  0  0  0  0  0  0  0  0
   -3.1467    0.1036    0.0000 C   0  0  0  0  0  0  0  0  0  0  0  0
   -2.4322   -0.3089    0.0000 N   0  0  0  0  0  0  0  0  0  0  0  0
   -3.1467    0.9286    0.0000 O   0  0  0  0  0  0  0  0  0  0  0  0
   -1.7177    0.1036    0.0000 C   0  0  0  0  0  0  0  0  0  0  0  0
   -1.0034   -0.3089    0.0000 C   0  0  0  0  0  0  0  0  0  0  0  0
   -0.2889    0.1036    0.0000 C   0  0  0  0  0  0  0  0  0  0  0  0
   -0.2889    0.9286    0.0000 C   0  0  0  0  0  0  0  0  0  0  0  0
   -1.0034    1.3411    0.0000 C   0  0  0  0  0  0  0  0  0  0  0  0
   -1.7177    0.9286    0.0000 C   0  0  0  0  0  0  0  0  0  0  0  0
    0.4256    1.3411    0.0000 N   0  0  0  0  0  0  0  0  0  0  0  0
    1.1401    0.9286    0.0000 C   0  0  0  0  0  0  0  0  0  0  0  0
    1.1401    0.1036    0.0000 N   0  0  0  0  0  0  0  0  0  0  0  0
    1.8544   -0.3089    0.0000 C   0  0  0  0  0  0  0  0  0  0  0  0
    2.5689    0.1036    0.0000 C   0  0  0  0  0  0  0  0  0  0  0  0
    2.5689    0.9286    0.0000 C   0  0  0  0  0  0  0  0  0  0  0  0
    1.8544    1.3411    0.0000 N   0  0  0  0  0  0  0  0  0  0  0  0
    3.2834    1.3411    0.0000 N   0  0  0  0  0  0  0  0  0  0  0  0
    3.9978    0.9286    0.0000 C   0  0  0  0  0  0  0  0  0  0  0  0
    4.0841    0.1082    0.0000 N   0  0  0  0  0  0  0  0  0  0  0  0
    4.8911   -0.0634    0.0000 N   0  0  0  0  0  0  0  0  0  0  0  0
    5.3035    0.6511    0.0000 C   0  0  0  0  0  0  0  0  0  0  0  0
    4.7515    1.2642    0.0000 C   0  0  0  0  0  0  0  0  0  0  0  0
    6.1003    0.8646    0.0000 C   0  0  0  0  0  0  0  0  0  0  0  0
    6.7415    0.3454    0.0000 C   0  0  0  0  0  0  0  0  0  0  0  0
    7.4334    0.7948    0.0000 C   0  0  0  0  0  0  0  0  0  0  0  0
    7.2199    1.5917    0.0000 C   0  0  0  0  0  0  0  0  0  0  0  0
    6.3960    1.6348    0.0000 C   0  0  0  0  0  0  0  0  0  0  0  0
   -0.3554   -1.6348    0.0000 H   0  0  0  0  0  0  0  0  0  0  0  0
    0.4696   -1.6348    0.0000 Cl  0  0  0  0  0  0  0  0  0  0  0  0
  1  2  2  0      
  2  3  1  0      
  3  4  2  0      
  4  5  1  0      
  5  6  2  0      
  6  1  1  0      
  2  7  1  0      
  4  8  1  0      
  7  9  1  0      
  7 10  1  0      
  7 11  1  0      
  8 12  1  0      
 12 13  1  0      
 12 14  2  0      
 13 15  1  0      
 15 16  2  0      
 16 17  1  0      
 17 18  2  0      
 18 19  1  0      
 19 20  2  0      
 20 15  1  0      
 18 21  1  0      
 21 22  1  0      
 22 23  2  0      
 23 24  1  0      
 24 25  2  0      
 25 26  1  0      
 26 27  2  0      
 27 22  1  0      
 26 28  1  0      
 28 29  1  0      
 29 30  2  0      
 30 31  1  0      
 31 32  1  0      
 32 33  2  0      
 33 29  1  0      
 32 34  1  0      
 34 35  1  0      
 35 36  1  0      
 36 37  1  0      
 37 38  1  0      
 38 34  1  0      
 39 40  1  0      
M  END

>  <RackCode>
HYCPK72335

>  <Cat. No.>
HY-112273A

>  <Product Name>
CD532 (hydrochloride)

>  <ROW>
P

>  <COLUMN>
4

>  <CAS No.>
2926498-81-7

>  <MWt>
558.99

>  <Target>
Aurora Kinase

>  <Saltdate>
Hydrochloride

>  <Smiles>
FC(F)(F)C1=CC=CC(NC(NC2=CC=C(NC3=NC=CC(NC4=NNC(C5CCCC5)=C4)=N3)C=C2)=O)=C1.[H]Cl

>  <Solvent>
DMSO Solution

>  <Batch No.>
178683

>  <Quantity>
10mM  * 50uL

>  <Pathway>
Cell Cycle/DNA Damage; Epigenetics

>  <Synonyms>


>  <Formula>
C26H26ClF3N8O

>  <Research_Area>
Cancer

>  <Clinical_Information>
No Development Reported

>  <SUPPLIER>
MedChemExpress

$$$$
Untitled Document
  ChemDraw03161708582D

 18 19  0  0  0  0  0  0  0  0999 V2000
    1.6299   -0.5681    0.0000 S   0  0  0  0  0  0  0  0  0  0  0  0
    2.4445   -0.6988    0.0000 C   0  0  0  0  0  0  0  0  0  0  0  0
    2.8206    0.0355    0.0000 N   0  0  0  0  0  0  0  0  0  0  0  0
    2.2384    0.6201    0.0000 C   0  0  0  0  0  0  0  0  0  0  0  0
    1.5024    0.2470    0.0000 C   0  0  0  0  0  0  0  0  0  0  0  0
    2.8176   -1.4346    0.0000 O   0  0  0  0  0  0  0  0  0  0  0  0
    2.3691    1.4346    0.0000 O   0  0  0  0  0  0  0  0  0  0  0  0
    0.7681    0.6230    0.0000 C   0  0  0  0  0  0  0  0  0  0  0  0
    0.0753    0.1751    0.0000 C   0  0  0  0  0  0  0  0  0  0  0  0
   -0.6590    0.5511    0.0000 C   0  0  0  0  0  0  0  0  0  0  0  0
   -1.3518    0.1032    0.0000 C   0  0  0  0  0  0  0  0  0  0  0  0
   -1.3103   -0.7208    0.0000 C   0  0  0  0  0  0  0  0  0  0  0  0
   -0.5760   -1.0968    0.0000 C   0  0  0  0  0  0  0  0  0  0  0  0
    0.1168   -0.6489    0.0000 C   0  0  0  0  0  0  0  0  0  0  0  0
   -2.0862    0.4792    0.0000 C   0  0  0  0  0  0  0  0  0  0  0  0
   -2.8206    0.8552    0.0000 F   0  0  0  0  0  0  0  0  0  0  0  0
   -2.1278    1.3031    0.0000 F   0  0  0  0  0  0  0  0  0  0  0  0
   -2.7790    0.0313    0.0000 F   0  0  0  0  0  0  0  0  0  0  0  0
  1  2  1  0      
  2  3  1  0      
  3  4  1  0      
  4  5  1  0      
  1  5  1  0      
  2  6  2  0      
  4  7  2  0      
  9 10  1  0      
 10 11  2  0      
 11 12  1  0      
 12 13  2  0      
 13 14  1  0      
  9 14  2  0      
 15 16  1  0      
 15 17  1  0      
 15 18  1  0      
 11 15  1  0      
  8  9  1  0      
  5  8  2  0      
M  END

>  <RackCode>
HYCPK72335

>  <Cat. No.>
HY-16576A

>  <Product Name>
SMI-4a

>  <ROW>
A

>  <COLUMN>
5

>  <CAS No.>
438190-29-5

>  <MWt>
273.23

>  <Target>
Pim

>  <Saltdate>
Free Base

>  <Smiles>
O=C(NC/1=O)SC1=C/C2=CC=CC(C(F)(F)F)=C2

>  <Solvent>
DMSO Solution

>  <Batch No.>
280493

>  <Quantity>
10mM  * 50uL

>  <Pathway>
JAK/STAT Signaling

>  <Synonyms>
TCS-PIM-1-4a

>  <Formula>
C11H6F3NO2S

>  <Research_Area>
Cancer

>  <Clinical_Information>
No Development Reported

>  <SUPPLIER>
MedChemExpress

$$$$
Untitled Document
  ChemDraw08162315502D

 23 25  0  0  0  0  0  0  0  0999 V2000
    1.0705   -0.4132    0.0000 C   0  0  0  0  0  0  0  0  0  0  0  0
    1.0705   -1.2382    0.0000 N   0  0  0  0  0  0  0  0  0  0  0  0
    1.7849   -1.6507    0.0000 C   0  0  0  0  0  0  0  0  0  0  0  0
    2.4994   -1.2382    0.0000 C   0  0  0  0  0  0  0  0  0  0  0  0
    2.4994   -0.4132    0.0000 C   0  0  0  0  0  0  0  0  0  0  0  0
    1.7849   -0.0007    0.0000 C   0  0  0  0  0  0  0  0  0  0  0  0
    1.7849    0.8243    0.0000 C   0  0  0  0  0  0  0  0  0  0  0  0
    1.0705    1.2368    0.0000 C   0  0  0  0  0  0  0  0  0  0  0  0
    0.3560    0.8243    0.0000 C   0  0  0  0  0  0  0  0  0  0  0  0
    0.3560   -0.0007    0.0000 C   0  0  0  0  0  0  0  0  0  0  0  0
   -0.3560    1.2354    0.0000 C   0  0  0  0  0  0  0  0  0  0  0  0
    0.3585   -1.6493    0.0000 C   0  0  0  0  0  0  0  0  0  0  0  0
    3.2114   -0.0021    0.0000 C   0  0  0  0  0  0  0  0  0  0  0  0
    1.7849   -2.4729    0.0000 O   0  0  0  0  0  0  0  0  0  0  0  0
   -0.3560    2.0604    0.0000 C   0  0  0  0  0  0  0  0  0  0  0  0
   -1.0705    2.4729    0.0000 C   0  0  0  0  0  0  0  0  0  0  0  0
   -1.7849    2.0604    0.0000 C   0  0  0  0  0  0  0  0  0  0  0  0
   -1.7849    1.2354    0.0000 N   0  0  0  0  0  0  0  0  0  0  0  0
   -1.0705    0.8229    0.0000 C   0  0  0  0  0  0  0  0  0  0  0  0
   -2.4969    2.4714    0.0000 O   0  0  0  0  0  0  0  0  0  0  0  0
   -1.0705    0.0007    0.0000 O   0  0  0  0  0  0  0  0  0  0  0  0
   -1.7825   -0.4104    0.0000 C   0  0  0  0  0  0  0  0  0  0  0  0
   -3.2114    2.0589    0.0000 C   0  0  0  0  0  0  0  0  0  0  0  0
  1  2  1  0      
  2  3  1  0      
  3  4  1  0      
  4  5  2  0      
  5  6  1  0      
  6  1  2  0      
  6  7  1  0      
  7  8  2  0      
  8  9  1  0      
  9 10  2  0      
 10  1  1  0      
  9 11  1  0      
  2 12  1  0      
  5 13  1  0      
  3 14  2  0      
 11 15  2  0      
 15 16  1  0      
 16 17  2  0      
 17 18  1  0      
 18 19  2  0      
 19 11  1  0      
 17 20  1  0      
 19 21  1  0      
 21 22  1  0      
 20 23  1  0      
M  END

>  <RackCode>
HYCPK72335

>  <Cat. No.>
HY-149420

>  <Product Name>
BRD7-IN-2

>  <ROW>
B

>  <COLUMN>
5

>  <CAS No.>
3032601-06-9

>  <MWt>
310.35

>  <Target>
Epigenetic Reader Domain

>  <Saltdate>


>  <Smiles>
CN1C2=C(C=CC(C3=CC=C(OC)N=C3OC)=C2)C(C)=CC1=O

>  <Solvent>
DMSO Solution

>  <Batch No.>
431095

>  <Quantity>
10mM  * 50uL

>  <Pathway>
Epigenetics

>  <Synonyms>


>  <Formula>
C18H18N2O3

>  <Research_Area>
others

>  <Clinical_Information>
No Development Reported

>  <SUPPLIER>
MedChemExpress

$$$$
Untitled Document
  ChemDraw11281813242D

 22 24  0  0  0  0  0  0  0  0999 V2000
   -0.3572   -0.8250    0.0000 O   0  0  0  0  0  0  0  0  0  0  0  0
   -0.3572    0.0000    0.0000 C   0  0  0  0  0  0  0  0  0  0  0  0
    0.3572    0.4125    0.0000 N   0  0  0  0  0  0  0  0  0  0  0  0
    1.0717    0.0000    0.0000 C   0  0  0  0  0  0  0  0  0  0  0  0
    1.7862    0.4125    0.0000 C   0  0  0  0  0  0  0  0  0  0  0  0
    2.5006    0.0000    0.0000 C   0  0  0  0  0  0  0  0  0  0  0  0
    2.5006   -0.8250    0.0000 C   0  0  0  0  0  0  0  0  0  0  0  0
    3.2151   -1.2375    0.0000 C   0  0  0  0  0  0  0  0  0  0  0  0
    3.9296   -1.6500    0.0000 N   0  0  0  0  0  0  0  0  0  0  0  0
    1.7862   -1.2375    0.0000 C   0  0  0  0  0  0  0  0  0  0  0  0
    1.0717   -0.8250    0.0000 C   0  0  0  0  0  0  0  0  0  0  0  0
   -1.0717    0.4125    0.0000 C   0  0  0  0  0  0  0  0  0  0  0  0
   -1.0717    1.2375    0.0000 C   0  0  0  0  0  0  0  0  0  0  0  0
   -0.3572    1.6500    0.0000 O   0  0  0  0  0  0  0  0  0  0  0  0
   -1.7862    1.6500    0.0000 C   0  0  0  0  0  0  0  0  0  0  0  0
   -2.5006    1.2375    0.0000 C   0  0  0  0  0  0  0  0  0  0  0  0
   -3.2151    1.6500    0.0000 C   0  0  0  0  0  0  0  0  0  0  0  0
   -3.9296    1.2375    0.0000 C   0  0  0  0  0  0  0  0  0  0  0  0
   -3.9296    0.4125    0.0000 C   0  0  0  0  0  0  0  0  0  0  0  0
   -3.2151    0.0000    0.0000 C   0  0  0  0  0  0  0  0  0  0  0  0
   -2.5006    0.4125    0.0000 C   0  0  0  0  0  0  0  0  0  0  0  0
   -1.7862    0.0000    0.0000 C   0  0  0  0  0  0  0  0  0  0  0  0
  1  2  2  0      
  2  3  1  0      
  3  4  1  0      
  4  5  2  0      
  5  6  1  0      
  6  7  2  0      
  7  8  1  0      
  8  9  3  0      
  7 10  1  0      
 10 11  2  0      
  4 11  1  0      
  2 12  1  0      
 12 13  2  0      
 13 14  1  0      
 13 15  1  0      
 15 16  2  0      
 16 17  1  0      
 17 18  2  0      
 18 19  1  0      
 19 20  2  0      
 20 21  1  0      
 16 21  1  0      
 21 22  2  0      
 12 22  1  0      
M  END

>  <RackCode>
HYCPK72335

>  <Cat. No.>
HY-119769

>  <Product Name>
XX-650-23

>  <ROW>
C

>  <COLUMN>
5

>  <CAS No.>
117739-40-9

>  <MWt>
288.30

>  <Target>
Epigenetic Reader Domain

>  <Saltdate>


>  <Smiles>
O=C(C1=C(C=C2C=CC=CC2=C1)O)NC3=CC=C(C=C3)C#N

>  <Solvent>
DMSO Solution

>  <Batch No.>
312074

>  <Quantity>
10mM  * 50uL

>  <Pathway>
Epigenetics

>  <Synonyms>


>  <Formula>
C18H12N2O2

>  <Research_Area>
Cancer

>  <Clinical_Information>
No Development Reported

>  <SUPPLIER>
MedChemExpress

$$$$
Untitled Document
  ChemDraw03262412432D

 48 52  0  0  0  0  0  0  0  0999 V2000
   -4.6441   -3.9380    0.0000 N   0  0  0  0  0  0  0  0  0  0  0  0
   -5.3585   -3.5255    0.0000 C   0  0  0  0  0  0  0  0  0  0  0  0
   -6.0730   -3.9380    0.0000 C   0  0  0  0  0  0  0  0  0  0  0  0
   -6.7875   -3.5255    0.0000 C   0  0  0  0  0  0  0  0  0  0  0  0
   -7.5019   -3.9380    0.0000 F   0  0  0  0  0  0  0  0  0  0  0  0
   -6.7875   -2.7005    0.0000 C   0  0  0  0  0  0  0  0  0  0  0  0
   -6.0730   -2.2880    0.0000 C   0  0  0  0  0  0  0  0  0  0  0  0
   -5.3585   -2.7005    0.0000 C   0  0  0  0  0  0  0  0  0  0  0  0
   -4.6441   -2.2880    0.0000 N   0  0  0  0  0  0  0  0  0  0  0  0
   -3.9296   -2.7005    0.0000 C   0  0  0  0  0  0  0  0  0  0  0  0
   -3.9296   -3.5255    0.0000 O   0  0  0  0  0  0  0  0  0  0  0  0
   -3.2151   -2.2880    0.0000 C   0  0  0  0  0  0  0  0  0  0  0  0
   -3.2151   -1.4630    0.0000 C   0  0  0  0  0  0  0  0  0  0  0  0
   -2.5006   -1.0505    0.0000 C   0  0  0  0  0  0  0  0  0  0  0  0
   -1.7862   -1.4630    0.0000 C   0  0  0  0  0  0  0  0  0  0  0  0
   -1.0717   -1.0505    0.0000 N   0  0  0  0  0  0  0  0  0  0  0  0
   -0.3572   -1.4630    0.0000 C   0  0  0  0  0  0  0  0  0  0  0  0
   -0.3572   -2.2880    0.0000 O   0  0  0  0  0  0  0  0  0  0  0  0
    0.3572   -1.0505    0.0000 C   0  0  0  0  0  0  0  0  0  0  0  0
    1.0717   -1.4630    0.0000 C   0  0  0  0  0  0  0  0  0  0  0  0
    1.7862   -1.0505    0.0000 C   0  0  0  0  0  0  0  0  0  0  0  0
    2.5006   -1.4630    0.0000 C   0  0  0  0  0  0  0  0  0  0  0  0
    3.2151   -1.0505    0.0000 N   0  0  0  0  0  0  0  0  0  0  0  0
    3.9296   -1.4630    0.0000 C   0  0  0  0  0  0  0  0  0  0  0  0
    3.9296   -2.2880    0.0000 O   0  0  0  0  0  0  0  0  0  0  0  0
    4.6441   -1.0505    0.0000 C   0  0  0  0  0  0  0  0  0  0  0  0
    5.3585   -1.4630    0.0000 N   0  0  0  0  0  0  0  0  0  0  0  0
    6.0730   -1.0505    0.0000 C   0  0  0  0  0  0  0  0  0  0  0  0
    6.0730   -0.2255    0.0000 C   0  0  0  0  0  0  0  0  0  0  0  0
    5.4599    0.3265    0.0000 C   0  0  0  0  0  0  0  0  0  0  0  0
    4.6529    0.1550    0.0000 O   0  0  0  0  0  0  0  0  0  0  0  0
    5.7955    1.0802    0.0000 N   0  0  0  0  0  0  0  0  0  0  0  0
    5.3830    1.7946    0.0000 C   0  0  0  0  0  0  0  0  0  0  0  0
    4.5580    1.7946    0.0000 C   0  0  0  0  0  0  0  0  0  0  0  0
    4.1455    2.5091    0.0000 C   0  0  0  0  0  0  0  0  0  0  0  0
    4.5580    3.2236    0.0000 C   0  0  0  0  0  0  0  0  0  0  0  0
    4.1455    3.9380    0.0000 O   0  0  0  0  0  0  0  0  0  0  0  0
    5.3830    3.2236    0.0000 N   0  0  0  0  0  0  0  0  0  0  0  0
    5.7955    2.5091    0.0000 C   0  0  0  0  0  0  0  0  0  0  0  0
    6.6205    2.5091    0.0000 O   0  0  0  0  0  0  0  0  0  0  0  0
    6.6159    0.9939    0.0000 C   0  0  0  0  0  0  0  0  0  0  0  0
    7.1680    1.6070    0.0000 O   0  0  0  0  0  0  0  0  0  0  0  0
    6.7875    0.1870    0.0000 C   0  0  0  0  0  0  0  0  0  0  0  0
    7.5019   -0.2255    0.0000 C   0  0  0  0  0  0  0  0  0  0  0  0
    7.5019   -1.0505    0.0000 C   0  0  0  0  0  0  0  0  0  0  0  0
    6.7875   -1.4630    0.0000 C   0  0  0  0  0  0  0  0  0  0  0  0
   -1.7862   -2.2880    0.0000 C   0  0  0  0  0  0  0  0  0  0  0  0
   -2.5006   -2.7005    0.0000 C   0  0  0  0  0  0  0  0  0  0  0  0
  1  2  1  0      
  2  3  2  0      
  3  4  1  0      
  4  5  1  0      
  4  6  2  0      
  6  7  1  0      
  7  8  2  0      
  2  8  1  0      
  8  9  1  0      
  9 10  1  0      
 10 11  2  0      
 10 12  1  0      
 12 13  2  0      
 13 14  1  0      
 14 15  2  0      
 15 16  1  0      
 16 17  1  0      
 17 18  2  0      
 17 19  1  0      
 19 20  1  0      
 20 21  1  0      
 21 22  1  0      
 22 23  1  0      
 23 24  1  0      
 24 25  2  0      
 24 26  1  0      
 26 27  1  0      
 27 28  1  0      
 28 29  2  0      
 29 30  1  0      
 30 31  2  0      
 30 32  1  0      
 32 33  1  0      
 33 34  1  0      
 34 35  1  0      
 35 36  1  0      
 36 37  2  0      
 36 38  1  0      
 38 39  1  0      
 33 39  1  0      
 39 40  2  0      
 32 41  1  0      
 41 42  2  0      
 41 43  1  0      
 29 43  1  0      
 43 44  2  0      
 44 45  1  0      
 45 46  2  0      
 28 46  1  0      
 15 47  1  0      
 47 48  2  0      
 12 48  1  0      
M  END

>  <RackCode>
HYCPK72335

>  <Cat. No.>
HY-146346

>  <Product Name>
HD-TAC7

>  <ROW>
D

>  <COLUMN>
5

>  <CAS No.>
2978763-95-8

>  <MWt>
657.65

>  <Target>
HDAC; PROTACs

>  <Saltdate>


>  <Smiles>
NC1=CC(F)=CC=C1NC(C2=CC=C(C=C2)NC(CCCCNC(CNC3=C4C(N(C(C4=CC=C3)=O)C5CCC(NC5=O)=O)=O)=O)=O)=O

>  <Solvent>
DMSO Solution

>  <Batch No.>
399660

>  <Quantity>
10mM  * 50uL

>  <Pathway>
Cell Cycle/DNA Damage; Epigenetics; PROTAC

>  <Synonyms>


>  <Formula>
C33H32FN7O7

>  <Research_Area>
Inflammation/Immunology

>  <Clinical_Information>
No Development Reported

>  <SUPPLIER>
MedChemExpress

$$$$
Untitled Document
  ChemDraw09262309012D

 25 27  0  0  0  0  0  0  0  0999 V2000
    1.7863   -0.2062    0.0000 O   0  0  0  0  0  0  0  0  0  0  0  0
    1.7863   -1.0313    0.0000 C   0  0  0  0  0  0  0  0  0  0  0  0
    2.5007   -1.4437    0.0000 N   0  0  0  0  0  0  0  0  0  0  0  0
    3.2152   -1.0313    0.0000 C   0  0  0  0  0  0  0  0  0  0  0  0
    3.2152   -0.2062    0.0000 C   0  0  0  0  0  0  0  0  0  0  0  0
    3.9297    0.2062    0.0000 C   0  0  0  0  0  0  0  0  0  0  0  0
    4.6442   -0.2062    0.0000 C   0  0  0  0  0  0  0  0  0  0  0  0
    4.6442   -1.0313    0.0000 C   0  0  0  0  0  0  0  0  0  0  0  0
    3.9297   -1.4437    0.0000 C   0  0  0  0  0  0  0  0  0  0  0  0
    1.0717   -1.4437    0.0000 N   0  0  0  0  0  0  0  0  0  0  0  0
    0.3572   -1.0313    0.0000 C   0  0  0  0  0  0  0  0  0  0  0  0
   -0.3572   -1.4437    0.0000 C   0  0  0  0  0  0  0  0  0  0  0  0
   -1.0717   -1.0313    0.0000 C   0  0  0  0  0  0  0  0  0  0  0  0
   -1.0717   -0.2062    0.0000 C   0  0  0  0  0  0  0  0  0  0  0  0
   -0.3572    0.2062    0.0000 C   0  0  0  0  0  0  0  0  0  0  0  0
    0.3572   -0.2062    0.0000 C   0  0  0  0  0  0  0  0  0  0  0  0
   -1.7863    0.2062    0.0000 N   0  0  0  0  0  0  0  0  0  0  0  0
   -2.5007   -0.2062    0.0000 C   0  0  0  0  0  0  0  0  0  0  0  0
   -2.5007   -1.0313    0.0000 O   0  0  0  0  0  0  0  0  0  0  0  0
   -3.2152    0.2062    0.0000 C   0  0  0  0  0  0  0  0  0  0  0  0
   -3.9297   -0.2062    0.0000 C   0  0  0  0  0  0  0  0  0  0  0  0
   -4.6442    0.2062    0.0000 C   0  0  0  0  0  0  0  0  0  0  0  0
   -4.6442    1.0313    0.0000 C   0  0  0  0  0  0  0  0  0  0  0  0
   -3.9297    1.4437    0.0000 C   0  0  0  0  0  0  0  0  0  0  0  0
   -3.2152    1.0313    0.0000 C   0  0  0  0  0  0  0  0  0  0  0  0
  1  2  2  0      
  2  3  1  0      
  3  4  1  0      
  4  5  1  0      
  5  6  2  0      
  6  7  1  0      
  7  8  2  0      
  8  9  1  0      
  4  9  2  0      
  2 10  1  0      
 10 11  1  0      
 11 12  2  0      
 12 13  1  0      
 13 14  2  0      
 14 15  1  0      
 15 16  2  0      
 11 16  1  0      
 14 17  1  0      
 17 18  1  0      
 18 19  2  0      
 18 20  1  0      
 20 21  1  0      
 21 22  2  0      
 22 23  1  0      
 23 24  2  0      
 24 25  1  0      
 20 25  2  0      
M  END

>  <RackCode>
HYCPK72335

>  <Cat. No.>
HY-156781

>  <Product Name>
Sirtuin-1 inhibitor 1

>  <ROW>
E

>  <COLUMN>
5

>  <CAS No.>
945114-10-3

>  <MWt>
331.37

>  <Target>
Sirtuin

>  <Saltdate>


>  <Smiles>
O=C(NC1=CC=C(NC(C2=CC=CC=C2)=O)C=C1)NC3=CC=CC=C3

>  <Solvent>
DMSO Solution

>  <Batch No.>
322070

>  <Quantity>
10mM  * 50uL

>  <Pathway>
Cell Cycle/DNA Damage; Epigenetics

>  <Synonyms>


>  <Formula>
C20H17N3O2

>  <Research_Area>
Metabolic Disease

>  <Clinical_Information>
No Development Reported

>  <SUPPLIER>
MedChemExpress

$$$$
Untitled Document
  ChemDraw11171615392D

 40 45  0  0  0  0  0  0  0  0999 V2000
    0.3548    2.5209    0.0000 C   0  0  0  0  0  0  0  0  0  0  0  0
    0.3548    1.6959    0.0000 C   0  0  0  0  0  0  0  0  0  0  0  0
    1.0692    1.2834    0.0000 C   0  0  0  0  0  0  0  0  0  0  0  0
    1.7837    1.6959    0.0000 C   0  0  0  0  0  0  0  0  0  0  0  0
    1.7837    2.5209    0.0000 C   0  0  0  0  0  0  0  0  0  0  0  0
    1.0692    2.9334    0.0000 C   0  0  0  0  0  0  0  0  0  0  0  0
    2.4957    2.9320    0.0000 C   0  0  0  0  0  0  0  0  0  0  0  0
    3.2077    2.5209    0.0000 N   0  0  0  0  0  0  0  0  0  0  0  0
    3.2077    1.6959    0.0000 C   0  0  0  0  0  0  0  0  0  0  0  0
    3.9222    1.2834    0.0000 C   0  0  0  0  0  0  0  0  0  0  0  0
    4.6366    1.6959    0.0000 O   0  0  0  0  0  0  0  0  0  0  0  0
    4.6366    2.5209    0.0000 C   0  0  0  0  0  0  0  0  0  0  0  0
    3.9222    2.9334    0.0000 C   0  0  0  0  0  0  0  0  0  0  0  0
   -0.3572    1.2848    0.0000 C   0  0  0  0  0  0  0  0  0  0  0  0
   -1.0717    1.6973    0.0000 C   0  0  0  0  0  0  0  0  0  0  0  0
   -1.7862    1.2848    0.0000 C   0  0  0  0  0  0  0  0  0  0  0  0
   -1.7862    0.4598    0.0000 C   0  0  0  0  0  0  0  0  0  0  0  0
   -1.0717    0.0473    0.0000 C   0  0  0  0  0  0  0  0  0  0  0  0
   -0.3572    0.4598    0.0000 C   0  0  0  0  0  0  0  0  0  0  0  0
   -2.5708    1.5398    0.0000 N   0  0  0  0  0  0  0  0  0  0  0  0
   -3.0557    0.8723    0.0000 N   0  0  0  0  0  0  0  0  0  0  0  0
   -2.5708    0.2049    0.0000 C   0  0  0  0  0  0  0  0  0  0  0  0
   -1.0717   -0.7748    0.0000 C   0  0  0  0  0  0  0  0  0  0  0  0
   -0.3597   -1.1859    0.0000 O   0  0  0  0  0  0  0  0  0  0  0  0
   -1.7837   -1.1859    0.0000 N   0  0  0  0  0  0  0  0  0  0  0  0
   -1.7837   -2.0080    0.0000 C   0  0  0  0  0  0  0  0  0  0  0  0
   -2.8249    2.3217    0.0000 C   0  0  0  0  0  0  0  0  0  0  0  0
   -2.3399    2.9891    0.0000 C   0  0  0  0  0  0  0  0  0  0  0  0
   -2.8249    3.6566    0.0000 C   0  0  0  0  0  0  0  0  0  0  0  0
   -3.6095    3.4016    0.0000 C   0  0  0  0  0  0  0  0  0  0  0  0
   -3.6095    2.5766    0.0000 C   0  0  0  0  0  0  0  0  0  0  0  0
   -2.4957   -2.4191    0.0000 C   0  0  0  0  0  0  0  0  0  0  0  0
   -3.2102   -2.0066    0.0000 C   0  0  0  0  0  0  0  0  0  0  0  0
   -3.9246   -2.4191    0.0000 N   0  0  0  0  0  0  0  0  0  0  0  0
   -3.9246   -3.2441    0.0000 C   0  0  0  0  0  0  0  0  0  0  0  0
   -3.2102   -3.6566    0.0000 C   0  0  0  0  0  0  0  0  0  0  0  0
   -2.4957   -3.2441    0.0000 C   0  0  0  0  0  0  0  0  0  0  0  0
   -3.2102   -1.1844    0.0000 O   0  0  0  0  0  0  0  0  0  0  0  0
   -4.6366   -3.6551    0.0000 C   0  0  0  0  0  0  0  0  0  0  0  0
   -1.7837   -3.6551    0.0000 C   0  0  0  0  0  0  0  0  0  0  0  0
  1  2  2  0      
  2  3  1  0      
  3  4  2  0      
  4  5  1  0      
  5  6  2  0      
  6  1  1  0      
  5  7  1  0      
  7  8  1  0      
  8  9  1  0      
  9 10  1  0      
 10 11  1  0      
 11 12  1  0      
 12 13  1  0      
 13  8  1  0      
  2 14  1  0      
 14 15  2  0      
 15 16  1  0      
 16 17  2  0      
 17 18  1  0      
 18 19  2  0      
 19 14  1  0      
 16 20  1  0      
 20 21  1  0      
 21 22  2  0      
 22 17  1  0      
 18 23  1  0      
 23 24  2  0      
 23 25  1  0      
 25 26  1  0      
 20 27  1  0      
 27 28  1  0      
 28 29  1  0      
 29 30  1  0      
 30 31  1  0      
 31 27  1  0      
 26 32  1  0      
 32 33  1  0      
 33 34  1  0      
 34 35  1  0      
 35 36  2  0      
 36 37  1  0      
 37 32  2  0      
 33 38  2  0      
 35 39  1  0      
 37 40  1  0      
M  END

>  <RackCode>
HYCPK72335

>  <Cat. No.>
HY-15555

>  <Product Name>
EPZ005687

>  <ROW>
F

>  <COLUMN>
5

>  <CAS No.>
1396772-26-1

>  <MWt>
539.67

>  <Target>
Histone Methyltransferase

>  <Saltdate>
Free Base

>  <Smiles>
O=C(NCC1=C(C)C=C(C)NC1=O)C2=CC(C3=CC=C(CN4CCOCC4)C=C3)=CC5=C2C=NN5C6CCCC6

>  <Solvent>
DMSO Solution

>  <Batch No.>
10126

>  <Quantity>
10mM  * 50uL

>  <Pathway>
Epigenetics

>  <Synonyms>


>  <Formula>
C32H37N5O3

>  <Research_Area>
Cancer

>  <Clinical_Information>
No Development Reported

>  <SUPPLIER>
MedChemExpress

$$$$
Untitled Document
  ChemDraw01161810222D

 24 27  0  0  0  0  0  0  0  0999 V2000
   -2.0390    0.9342    0.0000 N   0  0  0  0  0  0  0  0  0  0  0  0
   -1.3716    0.4493    0.0000 C   0  0  0  0  0  0  0  0  0  0  0  0
   -0.5646    0.6208    0.0000 C   0  0  0  0  0  0  0  0  0  0  0  0
   -0.0126    0.0077    0.0000 C   0  0  0  0  0  0  0  0  0  0  0  0
   -0.2675   -0.7769    0.0000 C   0  0  0  0  0  0  0  0  0  0  0  0
   -1.0745   -0.9484    0.0000 C   0  0  0  0  0  0  0  0  0  0  0  0
   -1.6265   -0.3354    0.0000 C   0  0  0  0  0  0  0  0  0  0  0  0
   -2.4515   -0.3354    0.0000 C   0  0  0  0  0  0  0  0  0  0  0  0
   -3.0036   -0.9484    0.0000 C   0  0  0  0  0  0  0  0  0  0  0  0
   -3.8106   -0.7769    0.0000 C   0  0  0  0  0  0  0  0  0  0  0  0
   -4.0655    0.0077    0.0000 C   0  0  0  0  0  0  0  0  0  0  0  0
   -3.5135    0.6208    0.0000 C   0  0  0  0  0  0  0  0  0  0  0  0
   -2.7065    0.4493    0.0000 C   0  0  0  0  0  0  0  0  0  0  0  0
    0.2845   -1.3900    0.0000 C   0  0  0  0  0  0  0  0  0  0  0  0
    1.0915   -1.2185    0.0000 N   0  0  0  0  0  0  0  0  0  0  0  0
    1.6748   -1.8019    0.0000 C   0  0  0  0  0  0  0  0  0  0  0  0
    3.0551   -2.1717    0.0000 C   0  0  0  0  0  0  0  0  0  0  0  0
    2.4717   -1.5883    0.0000 C   0  0  0  0  0  0  0  0  0  0  0  0
    2.6852   -0.7914    0.0000 C   0  0  0  0  0  0  0  0  0  0  0  0
    3.4821   -0.5779    0.0000 C   0  0  0  0  0  0  0  0  0  0  0  0
    4.0655   -1.1613    0.0000 C   0  0  0  0  0  0  0  0  0  0  0  0
    3.8520   -1.9582    0.0000 N   0  0  0  0  0  0  0  0  0  0  0  0
   -2.0390    1.7592    0.0000 C   0  0  0  0  0  0  0  0  0  0  0  0
   -2.7535    2.1717    0.0000 C   0  0  0  0  0  0  0  0  0  0  0  0
  1  2  1  0      
  2  3  1  0      
  3  4  2  0      
  4  5  1  0      
  5  6  2  0      
  6  7  1  0      
  2  7  2  0      
  7  8  1  0      
  8  9  1  0      
  9 10  2  0      
 10 11  1  0      
 11 12  2  0      
 12 13  1  0      
  8 13  2  0      
  1 13  1  0      
 14 15  1  0      
  5 14  1  0      
 17 18  1  0      
 18 19  2  0      
 19 20  1  0      
 20 21  2  0      
 21 22  1  0      
 17 22  2  0      
 16 18  1  0      
 15 16  1  0      
 23 24  1  0      
  1 23  1  0      
M  END

>  <RackCode>
HYCPK72335

>  <Cat. No.>
HY-111213

>  <Product Name>
PRMT5-IN-20

>  <ROW>
G

>  <COLUMN>
5

>  <CAS No.>
880813-30-9

>  <MWt>
315.41

>  <Target>
Histone Methyltransferase

>  <Saltdate>


>  <Smiles>
CCN1C2=C(C3=C1C=CC=C3)C=C(CNCC4=CC=CN=C4)C=C2

>  <Solvent>
DMSO Solution

>  <Batch No.>
230466

>  <Quantity>
10mM  * 50uL

>  <Pathway>
Epigenetics

>  <Synonyms>


>  <Formula>
C21H21N3

>  <Research_Area>
Cancer

>  <Clinical_Information>
No Development Reported

>  <SUPPLIER>
MedChemExpress

$$$$
Untitled Document
  ChemDraw02142310252D

 26 30  0  0  0  0  0  0  0  0999 V2000
    3.4847    2.1088    0.0000 N   0  0  0  0  0  0  0  0  0  0  0  0
    2.6777    2.2803    0.0000 C   0  0  0  0  0  0  0  0  0  0  0  0
    2.2652    1.5659    0.0000 C   0  0  0  0  0  0  0  0  0  0  0  0
    1.4583    1.3944    0.0000 C   0  0  0  0  0  0  0  0  0  0  0  0
    1.2034    0.6098    0.0000 C   0  0  0  0  0  0  0  0  0  0  0  0
    1.7554   -0.0033    0.0000 C   0  0  0  0  0  0  0  0  0  0  0  0
    2.5623    0.1682    0.0000 C   0  0  0  0  0  0  0  0  0  0  0  0
    2.8172    0.9528    0.0000 C   0  0  0  0  0  0  0  0  0  0  0  0
    3.5709    1.2884    0.0000 N   0  0  0  0  0  0  0  0  0  0  0  0
    1.5005   -0.7879    0.0000 C   0  0  0  0  0  0  0  0  0  0  0  0
    1.9853   -1.4554    0.0000 C   0  0  0  0  0  0  0  0  0  0  0  0
    1.5005   -2.1227    0.0000 N   0  0  0  0  0  0  0  0  0  0  0  0
    0.7158   -1.8679    0.0000 C   0  0  0  0  0  0  0  0  0  0  0  0
    0.0014   -2.2803    0.0000 C   0  0  0  0  0  0  0  0  0  0  0  0
   -0.7131   -1.8679    0.0000 C   0  0  0  0  0  0  0  0  0  0  0  0
   -0.7131   -1.0429    0.0000 C   0  0  0  0  0  0  0  0  0  0  0  0
    0.0014   -0.6304    0.0000 N   0  0  0  0  0  0  0  0  0  0  0  0
    0.7158   -1.0429    0.0000 N   0  0  0  0  0  0  0  0  0  0  0  0
   -1.4276   -0.6304    0.0000 N   0  0  0  0  0  0  0  0  0  0  0  0
   -1.4276    0.1946    0.0000 C   0  0  0  0  0  0  0  0  0  0  0  0
   -2.1419   -1.0429    0.0000 C   0  0  0  0  0  0  0  0  0  0  0  0
   -2.8564   -0.6304    0.0000 C   0  0  0  0  0  0  0  0  0  0  0  0
   -3.5709   -1.0429    0.0000 C   0  0  0  0  0  0  0  0  0  0  0  0
   -3.5709   -1.8679    0.0000 O   0  0  0  0  0  0  0  0  0  0  0  0
   -2.8564   -2.2803    0.0000 C   0  0  0  0  0  0  0  0  0  0  0  0
   -2.1419   -1.8679    0.0000 C   0  0  0  0  0  0  0  0  0  0  0  0
  1  2  2  0      
  2  3  1  0      
  3  4  1  0      
  4  5  2  0      
  5  6  1  0      
  6  7  2  0      
  7  8  1  0      
  3  8  2  0      
  8  9  1  0      
  1  9  1  0      
  6 10  1  0      
 10 11  2  0      
 11 12  1  0      
 12 13  2  0      
 13 14  1  0      
 14 15  2  0      
 15 16  1  0      
 16 17  2  0      
 17 18  1  0      
 13 18  1  0      
 10 18  1  0      
 16 19  1  0      
 19 20  1  0      
 19 21  1  0      
 21 22  1  0      
 22 23  1  0      
 23 24  1  0      
 24 25  1  0      
 25 26  1  0      
 21 26  1  0      
M  END

>  <RackCode>
HYCPK72335

>  <Cat. No.>
HY-148853

>  <Product Name>
SRI-42127

>  <ROW>
H

>  <COLUMN>
5

>  <CAS No.>
2727872-68-4

>  <MWt>
348.40

>  <Target>
HuR

>  <Saltdate>


>  <Smiles>
CN(C1CCOCC1)C2=NN3C(C=C2)=NC=C3C4=CC5=C(C=C4)C=NN5

>  <Solvent>
DMSO Solution

>  <Batch No.>
272425

>  <Quantity>
10mM  * 50uL

>  <Pathway>
Epigenetics

>  <Synonyms>


>  <Formula>
C19H20N6O

>  <Research_Area>
Others

>  <Clinical_Information>
No Development Reported

>  <SUPPLIER>
MedChemExpress

$$$$
Untitled Document
  ChemDraw03312413442D

 67 74  0  0  0  0  0  0  0  0999 V2000
    5.7343   -2.1809    0.0000 N   0  0  0  0  0  0  0  0  0  0  0  0
    6.4920   -1.8544    0.0000 N   0  0  0  0  0  0  0  0  0  0  0  0
    6.4156   -1.0329    0.0000 C   0  0  0  0  0  0  0  0  0  0  0  0
    5.6107   -0.8517    0.0000 C   0  0  0  0  0  0  0  0  0  0  0  0
    5.2068   -0.1324    0.0000 C   0  0  0  0  0  0  0  0  0  0  0  0
    4.3818   -0.1225    0.0000 C   0  0  0  0  0  0  0  0  0  0  0  0
    3.9608   -0.8320    0.0000 C   0  0  0  0  0  0  0  0  0  0  0  0
    4.3647   -1.5514    0.0000 C   0  0  0  0  0  0  0  0  0  0  0  0
    5.1897   -1.5612    0.0000 C   0  0  0  0  0  0  0  0  0  0  0  0
    5.6278    0.5771    0.0000 C   0  0  0  0  0  0  0  0  0  0  0  0
    5.2239    1.2965    0.0000 O   0  0  0  0  0  0  0  0  0  0  0  0
    6.4527    0.5672    0.0000 N   0  0  0  0  0  0  0  0  0  0  0  0
    5.5532   -2.9857    0.0000 C   0  0  0  0  0  0  0  0  0  0  0  0
    4.7656   -3.2313    0.0000 C   0  0  0  0  0  0  0  0  0  0  0  0
    6.1596   -3.5451    0.0000 C   0  0  0  0  0  0  0  0  0  0  0  0
    2.7149   -1.5316    0.0000 C   0  0  0  0  0  0  0  0  0  0  0  0
    3.1359   -0.8221    0.0000 C   0  0  0  0  0  0  0  0  0  0  0  0
    2.7319   -0.1028    0.0000 C   0  0  0  0  0  0  0  0  0  0  0  0
    1.9070   -0.0929    0.0000 C   0  0  0  0  0  0  0  0  0  0  0  0
    1.4860   -0.8024    0.0000 C   0  0  0  0  0  0  0  0  0  0  0  0
    1.8899   -1.5218    0.0000 N   0  0  0  0  0  0  0  0  0  0  0  0
    0.6611   -0.7925    0.0000 N   0  0  0  0  0  0  0  0  0  0  0  0
    0.2400   -1.5020    0.0000 C   0  0  0  0  0  0  0  0  0  0  0  0
   -0.5849   -1.4922    0.0000 C   0  0  0  0  0  0  0  0  0  0  0  0
   -0.9888   -0.7728    0.0000 N   0  0  0  0  0  0  0  0  0  0  0  0
   -0.5678   -0.0633    0.0000 C   0  0  0  0  0  0  0  0  0  0  0  0
    0.2571   -0.0732    0.0000 C   0  0  0  0  0  0  0  0  0  0  0  0
   -1.8138   -0.7629    0.0000 C   0  0  0  0  0  0  0  0  0  0  0  0
   -2.2177   -0.0436    0.0000 C   0  0  0  0  0  0  0  0  0  0  0  0
   -3.0426   -0.0337    0.0000 N   0  0  0  0  0  0  0  0  0  0  0  0
   -3.4466    0.6856    0.0000 C   0  0  0  0  0  0  0  0  0  0  0  0
   -4.2715    0.6955    0.0000 C   0  0  0  0  0  0  0  0  0  0  0  0
   -4.6754    1.4148    0.0000 C   0  0  0  0  0  0  0  0  0  0  0  0
   -3.0256    1.3951    0.0000 O   0  0  0  0  0  0  0  0  0  0  0  0
   -5.5004    1.4247    0.0000 O   0  0  0  0  0  0  0  0  0  0  0  0
   -5.9043    2.1441    0.0000 C   0  0  0  0  0  0  0  0  0  0  0  0
   -6.7292    2.1539    0.0000 C   0  0  0  0  0  0  0  0  0  0  0  0
   -7.1332    2.8733    0.0000 N   0  0  0  0  0  0  0  0  0  0  0  0
   -9.3981    1.2959    0.0000 C   0  0  0  0  0  0  0  0  0  0  0  0
   -8.7144    0.8341    0.0000 N   0  0  0  0  0  0  0  0  0  0  0  0
   -8.0640    1.3415    0.0000 C   0  0  0  0  0  0  0  0  0  0  0  0
   -8.3455    2.1170    0.0000 C   0  0  0  0  0  0  0  0  0  0  0  0
   -7.9577    2.8451    0.0000 C   0  0  0  0  0  0  0  0  0  0  0  0
   -8.3943    3.5451    0.0000 C   0  0  0  0  0  0  0  0  0  0  0  0
   -9.2189    3.5169    0.0000 C   0  0  0  0  0  0  0  0  0  0  0  0
   -9.6067    2.7887    0.0000 C   0  0  0  0  0  0  0  0  0  0  0  0
   -9.1701    2.0888    0.0000 C   0  0  0  0  0  0  0  0  0  0  0  0
   -7.2711    1.1135    0.0000 O   0  0  0  0  0  0  0  0  0  0  0  0
  -10.1735    1.0143    0.0000 O   0  0  0  0  0  0  0  0  0  0  0  0
   -9.3580   -1.2516    0.0000 N   0  0  0  0  0  0  0  0  0  0  0  0
   -9.3862   -0.4271    0.0000 C   0  0  0  0  0  0  0  0  0  0  0  0
   -8.6863    0.0095    0.0000 C   0  0  0  0  0  0  0  0  0  0  0  0
   -7.9581   -0.3783    0.0000 C   0  0  0  0  0  0  0  0  0  0  0  0
   -7.9299   -1.2028    0.0000 C   0  0  0  0  0  0  0  0  0  0  0  0
   -8.6299   -1.6395    0.0000 C   0  0  0  0  0  0  0  0  0  0  0  0
   -8.6017   -2.4640    0.0000 O   0  0  0  0  0  0  0  0  0  0  0  0
  -10.1144   -0.0393    0.0000 O   0  0  0  0  0  0  0  0  0  0  0  0
    6.8737    1.2767    0.0000 C   0  0  0  0  0  0  0  0  0  0  0  0
    8.1197    1.9763    0.0000 C   0  0  0  0  0  0  0  0  0  0  0  0
    7.6987    1.2669    0.0000 C   0  0  0  0  0  0  0  0  0  0  0  0
    8.1026    0.5475    0.0000 C   0  0  0  0  0  0  0  0  0  0  0  0
    8.9276    0.5376    0.0000 C   0  0  0  0  0  0  0  0  0  0  0  0
    9.3486    1.2471    0.0000 C   0  0  0  0  0  0  0  0  0  0  0  0
    8.9446    1.9665    0.0000 N   0  0  0  0  0  0  0  0  0  0  0  0
    7.7158    2.6957    0.0000 O   0  0  0  0  0  0  0  0  0  0  0  0
   10.1735    1.2373    0.0000 C   0  0  0  0  0  0  0  0  0  0  0  0
    7.6816   -0.1620    0.0000 C   0  0  0  0  0  0  0  0  0  0  0  0
  1  2  1  0      
  2  3  2  0      
  3  4  1  0      
  4  5  1  0      
  5  6  2  0      
  6  7  1  0      
  7  8  2  0      
  8  9  1  0      
  1  9  1  0      
  4  9  2  0      
 10 11  2  0      
 10 12  1  0      
  5 10  1  0      
 13 14  1  0      
 13 15  1  0      
  1 13  1  0      
 16 17  1  0      
 17 18  2  0      
 18 19  1  0      
 19 20  2  0      
 20 21  1  0      
 16 21  2  0      
 22 23  1  0      
 23 24  1  0      
 24 25  1  0      
 25 26  1  0      
 26 27  1  0      
 22 27  1  0      
 28 29  1  0      
 31 32  1  0      
 32 33  1  0      
 31 34  2  0      
 36 37  1  0      
 35 36  1  0      
 39 40  1  0      
 40 41  1  0      
 41 42  1  0      
 42 43  1  0      
 43 44  2  0      
 44 45  1  0      
 45 46  2  0      
 46 47  1  0      
 39 47  1  0      
 42 47  2  0      
 41 48  2  0      
 39 49  2  0      
 50 51  1  0      
 51 52  1  0      
 52 53  1  0      
 53 54  1  0      
 54 55  1  0      
 50 55  1  0      
 55 56  2  0      
 51 57  2  0      
 40 52  1  0      
 38 43  1  0      
 37 38  1  0      
 33 35  1  0      
 30 31  1  0      
 29 30  1  0      
 25 28  1  0      
 20 22  1  0      
  7 17  1  0      
 59 60  1  0      
 60 61  2  0      
 61 62  1  0      
 62 63  2  0      
 63 64  1  0      
 59 64  1  0      
 59 65  2  0      
 63 66  1  0      
 61 67  1  0      
 58 60  1  0      
 12 58  1  0      
M  END

>  <RackCode>
HYCPK72335

>  <Cat. No.>
HY-148333

>  <Product Name>
MS177

>  <ROW>
I

>  <COLUMN>
5

>  <CAS No.>
2225938-86-1

>  <MWt>
914.02

>  <Target>
Apoptosis; Histone Methyltransferase; PROTACs

>  <Saltdate>


>  <Smiles>
O=C(C1=CC(C2=CC=C(N3CCN(CCNC(CCOCCNC4=CC=CC(C(N5C(CC6)C(NC6=O)=O)=O)=C4C5=O)=O)CC3)N=C2)=CC7=C1C=NN7C(C)C)NCC8=C(C)C=C(C)NC8=O

>  <Solvent>
DMSO Solution

>  <Batch No.>
250909

>  <Quantity>
10mM  * 50uL

>  <Pathway>
Apoptosis; Epigenetics; PROTAC

>  <Synonyms>


>  <Formula>
C48H55N11O8

>  <Research_Area>
Cancer

>  <Clinical_Information>
No Development Reported

>  <SUPPLIER>
MedChemExpress

$$$$
Untitled Document
  ChemDraw06072315302D

 22 21  0  0  0  0  0  0  0  0999 V2000
    5.3583   -1.2375    0.0000 O   0  0  0  0  0  0  0  0  0  0  0  0
    5.3583   -0.4125    0.0000 C   0  0  0  0  0  0  0  0  0  0  0  0
    4.6440    0.0000    0.0000 C   0  0  0  0  0  0  0  0  0  0  0  0
    3.9295   -0.4125    0.0000 C   0  0  0  0  0  0  0  0  0  0  0  0
    3.2150    0.0000    0.0000 C   0  0  0  0  0  0  0  0  0  0  0  0
    2.5005   -0.4125    0.0000 C   0  0  0  0  0  0  0  0  0  0  0  0
    1.7861    0.0000    0.0000 C   0  0  0  0  0  0  0  0  0  0  0  0
    1.0717   -0.4125    0.0000 C   0  0  0  0  0  0  0  0  0  0  0  0
    0.3572    0.0000    0.0000 C   0  0  0  0  0  0  0  0  0  0  0  0
   -0.3572   -0.4125    0.0000 C   0  0  0  0  0  0  0  0  0  0  0  0
   -1.0717    0.0000    0.0000 C   0  0  0  0  0  0  0  0  0  0  0  0
   -1.7861   -0.4125    0.0000 C   0  0  0  0  0  0  0  0  0  0  0  0
   -2.5005    0.0000    0.0000 C   0  0  0  0  0  0  0  0  0  0  0  0
   -3.2150   -0.4125    0.0000 C   0  0  0  0  0  0  0  0  0  0  0  0
   -3.9295    0.0000    0.0000 C   0  0  0  0  0  0  0  0  0  0  0  0
   -4.6440   -0.4125    0.0000 C   0  0  0  0  0  0  0  0  0  0  0  0
   -5.3583    0.0000    0.0000 C   0  0  0  0  0  0  0  0  0  0  0  0
   -6.0728   -0.4125    0.0000 C   0  0  0  0  0  0  0  0  0  0  0  0
    4.6440    0.8250    0.0000 C   0  0  0  0  0  0  0  0  0  0  0  0
    3.9295    1.2375    0.0000 O   0  0  0  0  0  0  0  0  0  0  0  0
    5.3583    1.2375    0.0000 C   0  0  0  0  0  0  0  0  0  0  0  0
    6.0728    0.0000    0.0000 C   0  0  0  0  0  0  0  0  0  0  0  0
  1  2  2  0      
  2  3  1  0      
  3  4  2  0      
  4  5  1  0      
  5  6  1  0      
  6  7  1  0      
  7  8  1  0      
  8  9  1  0      
  9 10  1  0      
 10 11  1  0      
 11 12  1  0      
 12 13  1  0      
 13 14  1  0      
 14 15  1  0      
 15 16  1  0      
 16 17  1  0      
 17 18  1  0      
  3 19  1  0      
 19 20  2  0      
 19 21  1  0      
  2 22  1  0      
M  END

>  <RackCode>
HYCPK72335

>  <Cat. No.>
HY-153768

>  <Product Name>
KAT modulator-1

>  <ROW>
J

>  <COLUMN>
5

>  <CAS No.>
1314006-43-3

>  <MWt>
308.50

>  <Target>
Histone Acetyltransferase

>  <Saltdate>


>  <Smiles>
O=C(C)/C(C(C)=O)=C/CCCCCCCCCCCCCC

>  <Solvent>
DMSO Solution

>  <Batch No.>
287055

>  <Quantity>
10mM  * 50uL

>  <Pathway>
Epigenetics

>  <Synonyms>


>  <Formula>
C20H36O2

>  <Research_Area>
Cancer

>  <Clinical_Information>
No Development Reported

>  <SUPPLIER>
MedChemExpress

$$$$
Untitled Document
  ChemDraw04212309292D

 34 37  0  0  0  0  0  0  0  0999 V2000
   -1.5662   -0.2839    0.0000 C   0  0  0  0  0  0  0  0  0  0  0  0
   -1.7108   -1.0962    0.0000 C   0  0  0  0  0  0  0  0  0  0  0  0
   -1.0795   -1.6276    0.0000 C   0  0  0  0  0  0  0  0  0  0  0  0
   -0.3038   -1.3467    0.0000 C   0  0  0  0  0  0  0  0  0  0  0  0
   -0.1593   -0.5343    0.0000 C   0  0  0  0  0  0  0  0  0  0  0  0
   -0.7904   -0.0030    0.0000 C   0  0  0  0  0  0  0  0  0  0  0  0
   -0.6463    0.8064    0.0000 C   0  0  0  0  0  0  0  0  0  0  0  0
   -1.2237   -2.4370    0.0000 C   0  0  0  0  0  0  0  0  0  0  0  0
   -0.5946   -2.9665    0.0000 C   0  0  0  0  0  0  0  0  0  0  0  0
   -0.7387   -3.7760    0.0000 C   0  0  0  0  0  0  0  0  0  0  0  0
   -0.1098   -4.3055    0.0000 O   0  0  0  0  0  0  0  0  0  0  0  0
    0.1289    1.0887    0.0000 N   0  0  0  0  0  0  0  0  0  0  0  0
    0.3915    1.8709    0.0000 C   0  0  0  0  0  0  0  0  0  0  0  0
   -0.0562    2.5638    0.0000 C   0  0  0  0  0  0  0  0  0  0  0  0
   -0.8771    2.6458    0.0000 N   0  0  0  0  0  0  0  0  0  0  0  0
   -1.4532    2.0551    0.0000 C   0  0  0  0  0  0  0  0  0  0  0  0
   -1.3505    1.2365    0.0000 C   0  0  0  0  0  0  0  0  0  0  0  0
   -2.2634    2.2104    0.0000 S   0  0  0  0  0  0  0  0  0  0  0  0
   -2.6615    1.4878    0.0000 C   0  0  0  0  0  0  0  0  0  0  0  0
   -2.0972    0.8858    0.0000 C   0  0  0  0  0  0  0  0  0  0  0  0
    0.2754    3.3192    0.0000 N   0  0  0  0  0  0  0  0  0  0  0  0
   -0.3405    3.8682    0.0000 N   0  0  0  0  0  0  0  0  0  0  0  0
   -1.0528    3.4519    0.0000 C   0  0  0  0  0  0  0  0  0  0  0  0
    1.2073    1.9733    0.0000 C   0  0  0  0  0  0  0  0  0  0  0  0
    1.5265    2.7309    0.0000 C   0  0  0  0  0  0  0  0  0  0  0  0
    1.0299    3.3862    0.0000 O   0  0  0  0  0  0  0  0  0  0  0  0
    2.3423    2.8333    0.0000 O   0  0  0  0  0  0  0  0  0  0  0  0
    2.6615    3.5910    0.0000 C   0  0  0  0  0  0  0  0  0  0  0  0
    2.1650    4.2463    0.0000 C   0  0  0  0  0  0  0  0  0  0  0  0
    3.4772    3.6934    0.0000 C   0  0  0  0  0  0  0  0  0  0  0  0
    3.0740    4.3055    0.0000 C   0  0  0  0  0  0  0  0  0  0  0  0
   -2.2519    0.0783    0.0000 C   0  0  0  0  0  0  0  0  0  0  0  0
   -3.4772    1.3854    0.0000 C   0  0  0  0  0  0  0  0  0  0  0  0
   -1.8057    3.7825    0.0000 C   0  0  0  0  0  0  0  0  0  0  0  0
  1  2  2  0      
  2  3  1  0      
  3  4  2  0      
  4  5  1  0      
  5  6  2  0      
  6  1  1  0      
  6  7  1  0      
  3  8  1  0      
  8  9  2  0      
  9 10  1  0      
 10 11  2  0      
  7 12  2  0      
 12 13  1  0      
 13 14  1  0      
 14 15  1  0      
 15 16  1  0      
 16 17  2  0      
 17  7  1  0      
 16 18  1  0      
 18 19  1  0      
 19 20  2  0      
 20 17  1  0      
 14 21  2  0      
 21 22  1  0      
 22 23  2  0      
 23 15  1  0      
 13 24  1  6      
 24 25  1  0      
 25 26  2  0      
 25 27  1  0      
 27 28  1  0      
 28 29  1  0      
 28 30  1  0      
 28 31  1  0      
 20 32  1  0      
 19 33  1  0      
 23 34  1  0      
M  END

>  <RackCode>
HYCPK72335

>  <Cat. No.>
HY-153385

>  <Product Name>
TMX1

>  <ROW>
K

>  <COLUMN>
5

>  <CAS No.>


>  <MWt>
476.59

>  <Target>
Apoptosis; Epigenetic Reader Domain

>  <Saltdate>


>  <Smiles>
O=C/C=C/C1=CC=C(C2=N[C@@H](CC(OC(C)(C)C)=O)C3=NN=C(C)N3C4=C2C(C)=C(C)S4)C=C1

>  <Solvent>
DMSO Solution

>  <Batch No.>
289926

>  <Quantity>
10mM  * 50uL

>  <Pathway>
Apoptosis; Epigenetics

>  <Synonyms>


>  <Formula>
C26H28N4O3S

>  <Research_Area>
Cancer

>  <Clinical_Information>
No Development Reported

>  <SUPPLIER>
MedChemExpress

$$$$
Untitled Document
  ChemDraw09052411152D

 68 74  0  0  0  0  0  0  0  0999 V2000
  -10.2740    0.3043    0.0000 C   0  0  0  0  0  0  0  0  0  0  0  0
   -9.6879    0.8863    0.0000 C   0  0  0  0  0  0  0  0  0  0  0  0
   -8.2775    0.8863    0.0000 C   0  0  0  0  0  0  0  0  0  0  0  0
   -9.6879    1.7113    0.0000 C   0  0  0  0  0  0  0  0  0  0  0  0
   -8.2775    1.7113    0.0000 C   0  0  0  0  0  0  0  0  0  0  0  0
   -7.9834    0.1227    0.0000 C   0  0  0  0  0  0  0  0  0  0  0  0
  -10.4044    2.1205    0.0000 C   0  0  0  0  0  0  0  0  0  0  0  0
   -8.9800    2.1205    0.0000 S   0  0  0  0  0  0  0  0  0  0  0  0
   -7.5695    2.1205    0.0000 N   0  0  0  0  0  0  0  0  0  0  0  0
   -7.1612    0.1227    0.0000 N   0  0  0  0  0  0  0  0  0  0  0  0
   -8.6999   -0.2931    0.0000 C   0  0  0  0  0  0  0  0  0  0  0  0
   -6.8630    1.7113    0.0000 C   0  0  0  0  0  0  0  0  0  0  0  0
   -7.5695    2.9455    0.0000 C   0  0  0  0  0  0  0  0  0  0  0  0
   -6.8630    0.8863    0.0000 C   0  0  0  0  0  0  0  0  0  0  0  0
   -8.6999   -1.1181    0.0000 C   0  0  0  0  0  0  0  0  0  0  0  0
   -9.4107    0.1227    0.0000 C   0  0  0  0  0  0  0  0  0  0  0  0
   -6.1566    2.1205    0.0000 N   0  0  0  0  0  0  0  0  0  0  0  0
   -8.1531    3.5275    0.0000 C   0  0  0  0  0  0  0  0  0  0  0  0
   -6.1566    2.9455    0.0000 N   0  0  0  0  0  0  0  0  0  0  0  0
   -6.1465    0.4745    0.0000 C   0  0  0  0  0  0  0  0  0  0  0  0
   -9.4107   -1.5273    0.0000 C   0  0  0  0  0  0  0  0  0  0  0  0
  -10.1288   -0.2931    0.0000 C   0  0  0  0  0  0  0  0  0  0  0  0
   -5.4381    0.8863    0.0000 C   0  0  0  0  0  0  0  0  0  0  0  0
  -10.1288   -1.1181    0.0000 C   0  0  0  0  0  0  0  0  0  0  0  0
   -4.7256    0.4745    0.0000 N   0  0  0  0  0  0  0  0  0  0  0  0
   -5.4381    1.7113    0.0000 O   0  0  0  0  0  0  0  0  0  0  0  0
  -10.8372   -1.5273    0.0000 Cl  0  0  0  0  0  0  0  0  0  0  0  0
   -4.0091    0.8863    0.0000 C   0  0  0  0  0  0  0  0  0  0  0  0
   -3.2967    0.4745    0.0000 C   0  0  0  0  0  0  0  0  0  0  0  0
   -2.5786    0.8863    0.0000 O   0  0  0  0  0  0  0  0  0  0  0  0
   -1.8621    0.4745    0.0000 C   0  0  0  0  0  0  0  0  0  0  0  0
   -1.1496    0.8863    0.0000 C   0  0  0  0  0  0  0  0  0  0  0  0
   -0.4383    0.4745    0.0000 C   0  0  0  0  0  0  0  0  0  0  0  0
    0.2780    0.8863    0.0000 O   0  0  0  0  0  0  0  0  0  0  0  0
    0.9901    0.4745    0.0000 C   0  0  0  0  0  0  0  0  0  0  0  0
    1.7063    0.8863    0.0000 C   0  0  0  0  0  0  0  0  0  0  0  0
    2.4185    0.4745    0.0000 N   0  0  0  0  0  0  0  0  0  0  0  0
    1.7063    1.7113    0.0000 O   0  0  0  0  0  0  0  0  0  0  0  0
    3.1347    0.8863    0.0000 C   0  0  0  0  0  0  0  0  0  0  0  0
    3.8469    0.4745    0.0000 C   0  0  0  0  0  0  0  0  0  0  0  0
    3.1347    1.7113    0.0000 C   0  0  0  0  0  0  0  0  0  0  0  0
    3.8469   -0.3505    0.0000 O   0  0  0  0  0  0  0  0  0  0  0  0
    4.5591    0.8863    0.0000 N   0  0  0  0  0  0  0  0  0  0  0  0
    3.8469    2.1205    0.0000 C   0  0  0  0  0  0  0  0  0  0  0  0
    2.7215    2.4235    0.0000 C   0  0  0  0  0  0  0  0  0  0  0  0
    2.3097    1.7113    0.0000 C   0  0  0  0  0  0  0  0  0  0  0  0
    5.2153    0.3805    0.0000 C   0  0  0  0  0  0  0  0  0  0  0  0
    4.8310    1.6574    0.0000 C   0  0  0  0  0  0  0  0  0  0  0  0
    5.2153   -0.4405    0.0000 C   0  0  0  0  0  0  0  0  0  0  0  0
    5.8975    0.8863    0.0000 C   0  0  0  0  0  0  0  0  0  0  0  0
    5.6596    1.6574    0.0000 C   0  0  0  0  0  0  0  0  0  0  0  0
    5.9275   -0.8563    0.0000 N   0  0  0  0  0  0  0  0  0  0  0  0
    4.4991   -0.8563    0.0000 O   0  0  0  0  0  0  0  0  0  0  0  0
    6.1481    2.3233    0.0000 O   0  0  0  0  0  0  0  0  0  0  0  0
    6.6463   -0.4405    0.0000 C   0  0  0  0  0  0  0  0  0  0  0  0
    6.6463    0.3805    0.0000 C   0  0  0  0  0  0  0  0  0  0  0  0
    7.3584   -0.8563    0.0000 C   0  0  0  0  0  0  0  0  0  0  0  0
    7.3584   -1.6813    0.0000 C   0  0  0  0  0  0  0  0  0  0  0  0
    8.0746   -0.4405    0.0000 C   0  0  0  0  0  0  0  0  0  0  0  0
    8.0746   -2.0946    0.0000 C   0  0  0  0  0  0  0  0  0  0  0  0
    8.7866   -0.8563    0.0000 C   0  0  0  0  0  0  0  0  0  0  0  0
    8.7866   -1.6813    0.0000 C   0  0  0  0  0  0  0  0  0  0  0  0
    9.5029   -2.0946    0.0000 C   0  0  0  0  0  0  0  0  0  0  0  0
   10.1828   -1.5888    0.0000 S   0  0  0  0  0  0  0  0  0  0  0  0
    9.7368   -2.8616    0.0000 C   0  0  0  0  0  0  0  0  0  0  0  0
   10.8372   -2.0946    0.0000 C   0  0  0  0  0  0  0  0  0  0  0  0
    9.2525   -3.5275    0.0000 C   0  0  0  0  0  0  0  0  0  0  0  0
   10.5694   -2.8616    0.0000 N   0  0  0  0  0  0  0  0  0  0  0  0
  1  2  1  0      
  2  3  1  0      
  2  4  2  0      
  3  5  2  0      
  3  6  1  0      
  4  7  1  0      
  4  8  1  0      
  5  8  1  0      
  5  9  1  0      
  6 10  2  0      
  6 11  1  0      
  9 12  1  0      
  9 13  1  0      
 10 14  1  0      
 11 15  2  0      
 11 16  1  0      
 12 14  1  0      
 12 17  2  0      
 13 18  1  0      
 13 19  2  0      
 14 20  1  6      
 15 21  1  0      
 16 22  2  0      
 17 19  1  0      
 20 23  1  0      
 21 24  2  0      
 22 24  1  0      
 23 25  1  0      
 23 26  2  0      
 24 27  1  0      
 25 28  1  0      
 28 29  1  0      
 29 30  1  0      
 30 31  1  0      
 31 32  1  0      
 32 33  1  0      
 33 34  1  0      
 34 35  1  0      
 35 36  1  0      
 36 37  1  0      
 36 38  2  0      
 37 39  1  0      
 39 40  1  0      
 39 41  1  1      
 40 42  2  0      
 40 43  1  0      
 41 44  1  0      
 41 45  1  0      
 41 46  1  0      
 43 47  1  0      
 43 48  1  0      
 47 49  1  1      
 47 50  1  0      
 48 51  1  0      
 49 52  1  0      
 49 53  2  0      
 50 51  1  0      
 51 54  1  6      
 52 55  1  0      
 55 56  1  1      
 55 57  1  0      
 57 58  2  0      
 57 59  1  0      
 58 60  1  0      
 59 61  2  0      
 60 62  2  0      
 61 62  1  0      
 62 63  1  0      
 63 64  1  0      
 63 65  2  0      
 64 66  1  0      
 65 67  1  0      
 65 68  1  0      
 66 68  2  0      
M  END

>  <RackCode>
HYCPK72335

>  <Cat. No.>
HY-100972

>  <Product Name>
ARV-771

>  <ROW>
L

>  <COLUMN>
5

>  <CAS No.>
1949837-12-0

>  <MWt>
986.64

>  <Target>
Epigenetic Reader Domain; PROTACs

>  <Saltdate>
Free Base

>  <Smiles>
CC(C(C(C1=CC=C(Cl)C=C1)=N[C@@H](CC(NCCOCCCOCC(N[C@@H](C(C)(C)C)C(N(C[C@H](O)C2)[C@@H]2C(N[C@H](C3=CC=C(C(SC=N4)=C4C)C=C3)C)=O)=O)=O)=O)C5=NN=C(C)N65)=C6S7)=C7C

>  <Solvent>
DMSO Solution

>  <Batch No.>
24246

>  <Quantity>
10mM  * 50uL

>  <Pathway>
Epigenetics; PROTAC

>  <Synonyms>


>  <Formula>
C49H60ClN9O7S2

>  <Research_Area>
Cancer

>  <Clinical_Information>
No Development Reported

>  <SUPPLIER>
MedChemExpress

$$$$
Untitled Document
  ChemDraw02072108492D

 20 22  0  0  0  0  0  0  0  0999 V2000
    0.0616    0.6187    0.0000 C   0  0  0  0  0  0  0  0  0  0  0  0
   -0.6529    0.2062    0.0000 C   0  0  0  0  0  0  0  0  0  0  0  0
   -0.6529   -0.6187    0.0000 C   0  0  0  0  0  0  0  0  0  0  0  0
   -1.3673   -1.0313    0.0000 C   0  0  0  0  0  0  0  0  0  0  0  0
   -2.0818   -0.6187    0.0000 C   0  0  0  0  0  0  0  0  0  0  0  0
   -2.0818    0.2062    0.0000 C   0  0  0  0  0  0  0  0  0  0  0  0
   -1.3673    0.6187    0.0000 C   0  0  0  0  0  0  0  0  0  0  0  0
    0.0616    1.4437    0.0000 O   0  0  0  0  0  0  0  0  0  0  0  0
    0.7761    0.2062    0.0000 N   0  0  0  0  0  0  0  0  0  0  0  0
    1.4906    0.6187    0.0000 C   0  0  0  0  0  0  0  0  0  0  0  0
    2.2050    0.2062    0.0000 C   0  0  0  0  0  0  0  0  0  0  0  0
    2.9587    0.5418    0.0000 C   0  0  0  0  0  0  0  0  0  0  0  0
    3.5107   -0.0713    0.0000 C   0  0  0  0  0  0  0  0  0  0  0  0
    3.0982   -0.7858    0.0000 C   0  0  0  0  0  0  0  0  0  0  0  0
    2.2913   -0.6142    0.0000 S   0  0  0  0  0  0  0  0  0  0  0  0
    0.7761   -0.6187    0.0000 C   0  0  0  0  0  0  0  0  0  0  0  0
    1.1886   -1.3332    0.0000 C   0  0  0  0  0  0  0  0  0  0  0  0
    0.3636   -1.3332    0.0000 C   0  0  0  0  0  0  0  0  0  0  0  0
   -2.7963   -1.0313    0.0000 C   0  0  0  0  0  0  0  0  0  0  0  0
   -3.5107   -1.4437    0.0000 N   0  0  0  0  0  0  0  0  0  0  0  0
  1  2  1  0      
  2  3  1  0      
  3  4  2  0      
  4  5  1  0      
  5  6  2  0      
  6  7  1  0      
  2  7  2  0      
  1  8  2  0      
  1  9  1  0      
 11 12  2  0      
 12 13  1  0      
 13 14  2  0      
 14 15  1  0      
 11 15  1  0      
 10 11  1  0      
  9 10  1  0      
 16 17  1  0      
 17 18  1  0      
 16 18  1  0      
  9 16  1  0      
 19 20  3  0      
  5 19  1  0      
M  END

>  <RackCode>
HYCPK72335

>  <Cat. No.>
HY-138283

>  <Product Name>
MR837

>  <ROW>
M

>  <COLUMN>
5

>  <CAS No.>
1210906-48-1

>  <MWt>
282.36

>  <Target>
Histone Methyltransferase

>  <Saltdate>
Free Base

>  <Smiles>
O=C(N(C1CC1)CC2=CC=CS2)C3=CC=C(C#N)C=C3

>  <Solvent>
DMSO Solution

>  <Batch No.>
153998

>  <Quantity>
10mM  * 50uL

>  <Pathway>
Epigenetics

>  <Synonyms>


>  <Formula>
C16H14N2OS

>  <Research_Area>
Cancer

>  <Clinical_Information>
No Development Reported

>  <SUPPLIER>
MedChemExpress

$$$$
Untitled Document
  ChemDraw05172109092D

 34 35  0  0  0  0  0  0  0  0999 V2000
   -3.2091    1.6633    0.0000 C   0  0  0  0  0  0  0  0  0  0  0  0
   -3.2091    0.8383    0.0000 N   0  0  0  0  0  0  0  0  0  0  0  0
   -2.4947    0.4257    0.0000 C   0  0  0  0  0  0  0  0  0  0  0  0
   -1.7801    0.8383    0.0000 C   0  0  0  0  0  0  0  0  0  0  0  0
   -1.7801    1.6633    0.0000 C   0  0  0  0  0  0  0  0  0  0  0  0
   -2.4947    2.0759    0.0000 N   0  0  0  0  0  0  0  0  0  0  0  0
   -1.0681    2.0744    0.0000 C   0  0  0  0  0  0  0  0  0  0  0  0
   -0.3535    1.6618    0.0000 C   0  0  0  0  0  0  0  0  0  0  0  0
    0.3610    2.0744    0.0000 C   0  0  0  0  0  0  0  0  0  0  0  0
    0.3610    2.8994    0.0000 C   0  0  0  0  0  0  0  0  0  0  0  0
   -0.3535    3.3119    0.0000 C   0  0  0  0  0  0  0  0  0  0  0  0
   -1.0681    2.8994    0.0000 C   0  0  0  0  0  0  0  0  0  0  0  0
    1.0730    3.3105    0.0000 O   0  0  0  0  0  0  0  0  0  0  0  0
    1.7850    2.8994    0.0000 C   0  0  0  0  0  0  0  0  0  0  0  0
    2.4971    3.3105    0.0000 C   0  0  0  0  0  0  0  0  0  0  0  0
    3.2091    2.8994    0.0000 C   0  0  0  0  0  0  0  0  0  0  0  0
    3.9212    3.3105    0.0000 N   0  0  0  0  0  0  0  0  0  0  0  0
    4.6332    2.8994    0.0000 C   0  0  0  0  0  0  0  0  0  0  0  0
    3.9212    4.1327    0.0000 C   0  0  0  0  0  0  0  0  0  0  0  0
   -3.9212    2.0744    0.0000 S   0  0  0  0  0  0  0  0  0  0  0  0
   -4.6332    2.4855    0.0000 O   0  0  0  0  0  0  0  0  0  0  0  0
   -4.3323    1.3623    0.0000 O   0  0  0  0  0  0  0  0  0  0  0  0
   -3.5101    2.7864    0.0000 C   0  0  0  0  0  0  0  0  0  0  0  0
   -2.4947   -0.3965    0.0000 N   0  0  0  0  0  0  0  0  0  0  0  0
   -1.7826   -0.8076    0.0000 C   0  0  0  0  0  0  0  0  0  0  0  0
   -1.7826   -1.6298    0.0000 C   0  0  0  0  0  0  0  0  0  0  0  0
   -1.0706   -2.0410    0.0000 C   0  0  0  0  0  0  0  0  0  0  0  0
   -1.0706   -2.8631    0.0000 N   0  0  0  0  0  0  0  0  0  0  0  0
   -1.7380   -3.3481    0.0000 N   0  0  0  0  0  0  0  0  0  0  0  0
   -1.4831   -4.1327    0.0000 C   0  0  0  0  0  0  0  0  0  0  0  0
   -0.6581   -4.1327    0.0000 C   0  0  0  0  0  0  0  0  0  0  0  0
   -0.4030   -3.3481    0.0000 C   0  0  0  0  0  0  0  0  0  0  0  0
    1.8455   -1.0268    0.0000 H   0  0  0  0  0  0  0  0  0  0  0  0
    2.6706   -1.0268    0.0000 Cl  0  0  0  0  0  0  0  0  0  0  0  0
  1  2  1  0      
  2  3  2  0      
  3  4  1  0      
  4  5  2  0      
  5  6  1  0      
  6  1  2  0      
  5  7  1  0      
  7  8  1  0      
  8  9  2  0      
  9 10  1  0      
 10 11  2  0      
 11 12  1  0      
 12  7  2  0      
 10 13  1  0      
 13 14  1  0      
 14 15  1  0      
 15 16  1  0      
 16 17  1  0      
 17 18  1  0      
 17 19  1  0      
  1 20  1  0      
 20 21  2  0      
 20 22  2  0      
 20 23  1  0      
  3 24  1  0      
 24 25  1  0      
 25 26  1  0      
 26 27  1  0      
 27 28  1  0      
 28 29  1  0      
 29 30  2  0      
 30 31  1  0      
 31 32  2  0      
 32 28  1  0      
 33 34  1  0      
M  END

>  <RackCode>
HYCPK72335

>  <Cat. No.>
HY-114205A

>  <Product Name>
TP-238 (hydrochloride)

>  <ROW>
N

>  <COLUMN>
5

>  <CAS No.>
2415263-05-5

>  <MWt>
495.04

>  <Target>
Epigenetic Reader Domain

>  <Saltdate>
Hydrochloride

>  <Smiles>
CN(C)CCCOC1=CC=C(C=C1)C2=CC(NCCCN3N=CC=C3)=NC(S(=O)(C)=O)=N2.[H]Cl

>  <Solvent>
DMSO Solution

>  <Batch No.>
264157

>  <Quantity>
10mM  * 50uL

>  <Pathway>
Epigenetics

>  <Synonyms>


>  <Formula>
C22H31ClN6O3S

>  <Research_Area>
Cancer

>  <Clinical_Information>
No Development Reported

>  <SUPPLIER>
MedChemExpress

$$$$
Untitled Document
  ChemDraw01021911192D

 40 44  0  0  0  0  0  0  0  0999 V2000
   -3.1941   -1.2375    0.0000 C   0  0  0  0  0  0  0  0  0  0  0  0
   -2.4797   -0.8250    0.0000 C   0  0  0  0  0  0  0  0  0  0  0  0
   -2.4797   -0.0000    0.0000 C   0  0  0  0  0  0  0  0  0  0  0  0
   -1.7652    0.4125    0.0000 C   0  0  0  0  0  0  0  0  0  0  0  0
   -1.0507   -0.0000    0.0000 C   0  0  0  0  0  0  0  0  0  0  0  0
   -1.0507   -0.8250    0.0000 C   0  0  0  0  0  0  0  0  0  0  0  0
   -1.7652   -1.2375    0.0000 C   0  0  0  0  0  0  0  0  0  0  0  0
   -3.1941   -2.0625    0.0000 O   0  0  0  0  0  0  0  0  0  0  0  0
   -3.9086   -0.8250    0.0000 N   0  0  0  0  0  0  0  0  0  0  0  0
   -0.3363    0.4125    0.0000 C   0  0  0  0  0  0  0  0  0  0  0  0
    0.3782   -0.0000    0.0000 C   0  0  0  0  0  0  0  0  0  0  0  0
    1.0927    0.4125    0.0000 C   0  0  0  0  0  0  0  0  0  0  0  0
    1.8071   -0.0000    0.0000 C   0  0  0  0  0  0  0  0  0  0  0  0
    1.8071   -0.8250    0.0000 C   0  0  0  0  0  0  0  0  0  0  0  0
    1.0927   -1.2375    0.0000 C   0  0  0  0  0  0  0  0  0  0  0  0
    0.3782   -0.8250    0.0000 C   0  0  0  0  0  0  0  0  0  0  0  0
    2.5216   -1.2375    0.0000 O   0  0  0  0  0  0  0  0  0  0  0  0
    3.2361   -0.8250    0.0000 C   0  0  0  0  0  0  0  0  0  0  0  0
    3.9506   -1.2375    0.0000 C   0  0  0  0  0  0  0  0  0  0  0  0
    2.5216    0.4125    0.0000 C   0  0  0  0  0  0  0  0  0  0  0  0
    3.2361   -0.0000    0.0000 N   0  0  0  0  0  0  0  0  0  0  0  0
    3.9506    0.4125    0.0000 C   0  0  0  0  0  0  0  0  0  0  0  0
    3.9506    1.2375    0.0000 C   0  0  0  0  0  0  0  0  0  0  0  0
    3.2361    1.6500    0.0000 C   0  0  0  0  0  0  0  0  0  0  0  0
    2.5216    1.2375    0.0000 N   0  0  0  0  0  0  0  0  0  0  0  0
    5.2201    0.8250    0.0000 N   0  0  0  0  0  0  0  0  0  0  0  0
    4.7352    1.4924    0.0000 N   0  0  0  0  0  0  0  0  0  0  0  0
    4.7352    0.1576    0.0000 C   0  0  0  0  0  0  0  0  0  0  0  0
    4.9901   -0.6271    0.0000 C   0  0  0  0  0  0  0  0  0  0  0  0
    5.7971   -0.7986    0.0000 C   0  0  0  0  0  0  0  0  0  0  0  0
    6.0520   -1.5832    0.0000 C   0  0  0  0  0  0  0  0  0  0  0  0
    3.2361    2.4750    0.0000 O   0  0  0  0  0  0  0  0  0  0  0  0
    4.9901    2.2771    0.0000 C   0  0  0  0  0  0  0  0  0  0  0  0
   -4.6231   -1.2375    0.0000 C   0  0  0  0  0  0  0  0  0  0  0  0
   -4.6231   -2.0625    0.0000 C   0  0  0  0  0  0  0  0  0  0  0  0
   -5.3376   -2.4750    0.0000 C   0  0  0  0  0  0  0  0  0  0  0  0
   -6.0520   -2.0625    0.0000 C   0  0  0  0  0  0  0  0  0  0  0  0
   -6.0520   -1.2375    0.0000 C   0  0  0  0  0  0  0  0  0  0  0  0
   -5.3376   -0.8250    0.0000 C   0  0  0  0  0  0  0  0  0  0  0  0
   -3.9086   -2.4750    0.0000 N   0  0  0  0  0  0  0  0  0  0  0  0
  1  2  1  0      
  2  3  1  0      
  3  4  2  0      
  4  5  1  0      
  5  6  2  0      
  6  7  1  0      
  2  7  2  0      
  1  8  2  0      
  1  9  1  0      
 11 12  1  0      
 12 13  2  0      
 13 14  1  0      
 14 15  2  0      
 15 16  1  0      
 11 16  2  0      
 18 19  1  0      
 17 18  1  0      
 14 17  1  0      
 20 21  2  0      
 21 22  1  0      
 22 23  2  0      
 23 24  1  0      
 24 25  1  0      
 20 25  1  0      
 26 27  1  0      
 26 28  2  0      
 22 28  1  0      
 23 27  1  0      
 29 30  1  0      
 30 31  1  0      
 28 29  1  0      
 24 32  2  0      
 27 33  1  0      
 13 20  1  0      
 10 11  1  0      
  5 10  1  0      
 34 35  1  0      
 35 36  2  0      
 36 37  1  0      
 37 38  2  0      
 38 39  1  0      
 34 39  2  0      
 35 40  1  0      
  9 34  1  0      
M  END

>  <RackCode>
HYCPK72335

>  <Cat. No.>
HY-114303

>  <Product Name>
CM-675

>  <ROW>
O

>  <COLUMN>
5

>  <CAS No.>
1872466-47-1

>  <MWt>
536.62

>  <Target>
HDAC; Phosphodiesterase (PDE)

>  <Saltdate>
Free Base

>  <Smiles>
O=C(NC1=CC=CC=C1N)C2=CC=C(CC3=CC=C(OCC)C(C4=NC5=C(N(C)N=C5CCC)C(N4)=O)=C3)C=C2

>  <Solvent>
DMSO Solution

>  <Batch No.>
145933

>  <Quantity>
10mM  * 50uL

>  <Pathway>
Cell Cycle/DNA Damage; Epigenetics; Metabolic Enzyme/Protease

>  <Synonyms>


>  <Formula>
C31H32N6O3

>  <Research_Area>
Neurological Disease

>  <Clinical_Information>
No Development Reported

>  <SUPPLIER>
MedChemExpress

$$$$
Untitled Document
  ChemDraw04162217322D

 36 39  0  0  0  0  0  0  0  0999 V2000
    0.5154   -0.5364    0.0000 N   0  0  0  0  0  0  0  0  0  0  0  0
   -0.1991   -0.9489    0.0000 C   0  0  0  0  0  0  0  0  0  0  0  0
   -0.9136   -0.5364    0.0000 C   0  0  0  0  0  0  0  0  0  0  0  0
   -1.6280   -0.9489    0.0000 N   0  0  0  0  0  0  0  0  0  0  0  0
   -2.3425   -0.5364    0.0000 C   0  0  0  0  0  0  0  0  0  0  0  0
   -2.3425    0.2886    0.0000 O   0  0  0  0  0  0  0  0  0  0  0  0
   -3.0569   -0.9489    0.0000 C   0  0  0  0  0  0  0  0  0  0  0  0
   -3.8106   -0.6134    0.0000 C   0  0  0  0  0  0  0  0  0  0  0  0
   -4.3626   -1.2265    0.0000 N   0  0  0  0  0  0  0  0  0  0  0  0
   -5.1831   -1.1402    0.0000 S   0  0  0  0  0  0  0  0  0  0  0  0
   -6.0036   -1.0540    0.0000 C   0  0  0  0  0  0  0  0  0  0  0  0
   -5.2693   -1.9607    0.0000 O   0  0  0  0  0  0  0  0  0  0  0  0
   -5.0968   -0.3197    0.0000 O   0  0  0  0  0  0  0  0  0  0  0  0
   -3.9501   -1.9409    0.0000 C   0  0  0  0  0  0  0  0  0  0  0  0
   -3.1431   -1.7694    0.0000 C   0  0  0  0  0  0  0  0  0  0  0  0
   -0.9136    0.2886    0.0000 C   0  0  0  0  0  0  0  0  0  0  0  0
   -0.1991    0.7011    0.0000 O   0  0  0  0  0  0  0  0  0  0  0  0
   -0.1991    1.5261    0.0000 C   0  0  0  0  0  0  0  0  0  0  0  0
   -0.1991   -1.7739    0.0000 O   0  0  0  0  0  0  0  0  0  0  0  0
    1.2298   -0.9489    0.0000 C   0  0  0  0  0  0  0  0  0  0  0  0
    1.9835   -0.6134    0.0000 N   0  0  0  0  0  0  0  0  0  0  0  0
    2.5355   -1.2265    0.0000 C   0  0  0  0  0  0  0  0  0  0  0  0
    2.1230   -1.9409    0.0000 C   0  0  0  0  0  0  0  0  0  0  0  0
    1.3161   -1.7694    0.0000 S   0  0  0  0  0  0  0  0  0  0  0  0
    3.3559   -1.1402    0.0000 C   0  0  0  0  0  0  0  0  0  0  0  0
    3.6915   -0.3866    0.0000 C   0  0  0  0  0  0  0  0  0  0  0  0
    4.5120   -0.3003    0.0000 C   0  0  0  0  0  0  0  0  0  0  0  0
    4.9969   -0.9678    0.0000 C   0  0  0  0  0  0  0  0  0  0  0  0
    4.6613   -1.7214    0.0000 C   0  0  0  0  0  0  0  0  0  0  0  0
    3.8408   -1.8077    0.0000 C   0  0  0  0  0  0  0  0  0  0  0  0
    4.8475    0.4534    0.0000 C   0  0  0  0  0  0  0  0  0  0  0  0
    5.6680    0.5396    0.0000 C   0  0  0  0  0  0  0  0  0  0  0  0
    6.0036    1.2933    0.0000 C   0  0  0  0  0  0  0  0  0  0  0  0
    5.5186    1.9607    0.0000 N   0  0  0  0  0  0  0  0  0  0  0  0
    4.6982    1.8745    0.0000 C   0  0  0  0  0  0  0  0  0  0  0  0
    4.3626    1.1208    0.0000 C   0  0  0  0  0  0  0  0  0  0  0  0
  1  2  1  0      
  2  3  1  0      
  3  4  1  0      
  4  5  1  0      
  5  6  2  0      
  5  7  1  0      
  7  8  2  0      
  8  9  1  0      
  9 10  1  0      
 10 11  1  0      
 10 12  2  0      
 10 13  2  0      
  9 14  1  0      
 14 15  2  0      
  7 15  1  0      
  3 16  1  1      
 16 17  1  0      
 17 18  1  0      
  2 19  2  0      
  1 20  1  0      
 20 21  2  0      
 21 22  1  0      
 22 23  2  0      
 23 24  1  0      
 20 24  1  0      
 22 25  1  0      
 25 26  2  0      
 26 27  1  0      
 27 28  2  0      
 28 29  1  0      
 29 30  2  0      
 25 30  1  0      
 27 31  1  0      
 31 32  1  0      
 32 33  2  0      
 33 34  1  0      
 34 35  2  0      
 35 36  1  0      
 31 36  2  0      
M  END

>  <RackCode>
HYCPK72335

>  <Cat. No.>
HY-144897

>  <Product Name>
FHT-1204

>  <ROW>
P

>  <COLUMN>
5

>  <CAS No.>
2468048-24-8

>  <MWt>
525.60

>  <Target>
Epigenetic Reader Domain

>  <Saltdate>


>  <Smiles>
O=C(C1=CN(C=C1)S(C)(=O)=O)N[C@@H](COC)C(NC2=NC(C3=CC(C4=CC=NC=C4)=CC=C3)=CS2)=O

>  <Solvent>
DMSO Solution

>  <Batch No.>
178392

>  <Quantity>
10mM  * 50uL

>  <Pathway>
Epigenetics

>  <Synonyms>


>  <Formula>
C24H23N5O5S2

>  <Research_Area>
Cancer

>  <Clinical_Information>
No Development Reported

>  <SUPPLIER>
MedChemExpress

$$$$
Untitled Document
  ChemDraw04081916012D

 26 28  0  0  0  0  0  0  0  0999 V2000
   -1.2325    0.9158    0.0000 C   0  0  0  0  0  0  0  0  0  0  0  0
   -1.2325    0.0908    0.0000 C   0  0  0  0  0  0  0  0  0  0  0  0
   -0.5180   -0.3217    0.0000 C   0  0  0  0  0  0  0  0  0  0  0  0
    0.1965    0.0908    0.0000 C   0  0  0  0  0  0  0  0  0  0  0  0
    0.1965    0.9158    0.0000 C   0  0  0  0  0  0  0  0  0  0  0  0
   -0.5180    1.3283    0.0000 C   0  0  0  0  0  0  0  0  0  0  0  0
   -1.9445    1.3269    0.0000 O   0  0  0  0  0  0  0  0  0  0  0  0
   -2.6540    0.9172    0.0000 C   0  0  0  0  0  0  0  0  0  0  0  0
   -1.9445   -0.3203    0.0000 N   0  0  0  0  0  0  0  0  0  0  0  0
   -2.6981    0.0153    0.0000 N   0  0  0  0  0  0  0  0  0  0  0  0
   -3.2502   -0.5978    0.0000 C   0  0  0  0  0  0  0  0  0  0  0  0
   -2.8377   -1.3123    0.0000 C   0  0  0  0  0  0  0  0  0  0  0  0
   -2.0307   -1.1408    0.0000 C   0  0  0  0  0  0  0  0  0  0  0  0
   -3.1721   -2.0634    0.0000 C   0  0  0  0  0  0  0  0  0  0  0  0
   -3.9869   -2.1490    0.0000 N   0  0  0  0  0  0  0  0  0  0  0  0
   -4.4684   -1.4862    0.0000 C   0  0  0  0  0  0  0  0  0  0  0  0
    0.9085   -0.3203    0.0000 N   0  0  0  0  0  0  0  0  0  0  0  0
    1.6180    0.0894    0.0000 C   0  0  0  0  0  0  0  0  0  0  0  0
    2.3324   -0.3231    0.0000 N   0  0  0  0  0  0  0  0  0  0  0  0
    3.0469    0.0894    0.0000 C   0  0  0  0  0  0  0  0  0  0  0  0
    3.0469    0.9144    0.0000 C   0  0  0  0  0  0  0  0  0  0  0  0
    2.3324    1.3269    0.0000 C   0  0  0  0  0  0  0  0  0  0  0  0
    1.6180    0.9144    0.0000 N   0  0  0  0  0  0  0  0  0  0  0  0
    3.7589   -0.3217    0.0000 N   0  0  0  0  0  0  0  0  0  0  0  0
    4.4684    0.0879    0.0000 C   0  0  0  0  0  0  0  0  0  0  0  0
    2.3324    2.1490    0.0000 C   0  0  0  0  0  0  0  0  0  0  0  0
  1  2  2  0      
  2  3  1  0      
  3  4  2  0      
  4  5  1  0      
  5  6  2  0      
  6  1  1  0      
  1  7  1  0      
  7  8  1  0      
  2  9  1  0      
  9 10  1  0      
 10 11  2  0      
 11 12  1  0      
 12 13  2  0      
 13  9  1  0      
 12 14  1  0      
 14 15  1  0      
 15 16  1  0      
  4 17  1  0      
 17 18  1  0      
 18 19  2  0      
 19 20  1  0      
 20 21  2  0      
 21 22  1  0      
 22 23  2  0      
 23 18  1  0      
 20 24  1  0      
 24 25  1  0      
 22 26  1  0      
M  END

>  <RackCode>
HYCPK72335

>  <Cat. No.>
HY-111778

>  <Product Name>
EHMT2-IN-1

>  <ROW>
A

>  <COLUMN>
6

>  <CAS No.>
2230849-55-3

>  <MWt>
353.42

>  <Target>
Histone Methyltransferase

>  <Saltdate>
Free Base

>  <Smiles>
COC1=C(N2N=CC(CNC)=C2)C=C(NC3=NC(NC)=CC(C)=N3)C=C1

>  <Solvent>
DMSO Solution

>  <Batch No.>
307234

>  <Quantity>
10mM  * 50uL

>  <Pathway>
Epigenetics

>  <Synonyms>


>  <Formula>
C18H23N7O

>  <Research_Area>
Cancer

>  <Clinical_Information>
No Development Reported

>  <SUPPLIER>
MedChemExpress

$$$$
Untitled Document
  ChemDraw05292016242D

 14 13  0  0  0  0  0  0  0  0999 V2000
   -2.5006   -0.2062    0.0000 C   0  0  0  0  0  0  0  0  0  0  0  0
   -1.7862    0.2062    0.0000 C   0  0  0  0  0  0  0  0  0  0  0  0
   -1.0717   -0.2062    0.0000 C   0  0  0  0  0  0  0  0  0  0  0  0
   -0.3572    0.2062    0.0000 C   0  0  0  0  0  0  0  0  0  0  0  0
    0.3572   -0.2062    0.0000 C   0  0  0  0  0  0  0  0  0  0  0  0
    1.0717    0.2062    0.0000 C   0  0  0  0  0  0  0  0  0  0  0  0
    1.7862   -0.2062    0.0000 C   0  0  0  0  0  0  0  0  0  0  0  0
    2.5006    0.2062    0.0000 C   0  0  0  0  0  0  0  0  0  0  0  0
   -2.5006   -1.0313    0.0000 O   0  0  0  0  0  0  0  0  0  0  0  0
   -3.2151    0.2062    0.0000 N   0  0  0  0  0  0  0  0  0  0  0  0
    2.5006    1.0313    0.0000 O   0  0  0  0  0  0  0  0  0  0  0  0
    3.2151   -0.2062    0.0000 N   0  0  0  0  0  0  0  0  0  0  0  0
    3.9296    0.2062    0.0000 O   0  0  0  0  0  0  0  0  0  0  0  0
   -3.9296   -0.2062    0.0000 O   0  0  0  0  0  0  0  0  0  0  0  0
  1  2  1  0      
  2  3  1  0      
  3  4  1  0      
  4  5  1  0      
  5  6  1  0      
  6  7  1  0      
  7  8  1  0      
  1  9  2  0      
  1 10  1  0      
  8 11  2  0      
  8 12  1  0      
 12 13  1  0      
 10 14  1  0      
M  END

>  <RackCode>
HYCPK72335

>  <Cat. No.>
HY-W009776

>  <Product Name>
Suberoyl bis-hydroxamic acid

>  <ROW>
B

>  <COLUMN>
6

>  <CAS No.>
38937-66-5

>  <MWt>
204.22

>  <Target>
Apoptosis; HDAC

>  <Saltdate>
Free Base

>  <Smiles>
O=C(NO)CCCCCCC(NO)=O

>  <Solvent>
DMSO Solution

>  <Batch No.>
256634

>  <Quantity>
10mM  * 50uL

>  <Pathway>
Apoptosis; Cell Cycle/DNA Damage; Epigenetics

>  <Synonyms>
Suberohydroxamic acid; SBHA

>  <Formula>
C8H16N2O4

>  <Research_Area>
Cancer

>  <Clinical_Information>
No Development Reported

>  <SUPPLIER>
MedChemExpress

$$$$
Untitled Document
  ChemDraw09051816562D

 27 30  0  0  0  0  0  0  0  0999 V2000
    2.8579    0.0000    0.0000 N   0  0  0  0  0  0  0  0  0  0  0  0
    3.5724   -0.4125    0.0000 C   0  0  0  0  0  0  0  0  0  0  0  0
    3.5724   -1.2375    0.0000 C   0  0  0  0  0  0  0  0  0  0  0  0
    2.8579   -1.6500    0.0000 C   0  0  0  0  0  0  0  0  0  0  0  0
    2.1434   -1.2375    0.0000 C   0  0  0  0  0  0  0  0  0  0  0  0
    1.4289   -1.6500    0.0000 C   0  0  0  0  0  0  0  0  0  0  0  0
    0.7145   -1.2375    0.0000 C   0  0  0  0  0  0  0  0  0  0  0  0
    0.7145   -0.4125    0.0000 C   0  0  0  0  0  0  0  0  0  0  0  0
    1.4289    0.0000    0.0000 C   0  0  0  0  0  0  0  0  0  0  0  0
    2.1434   -0.4125    0.0000 C   0  0  0  0  0  0  0  0  0  0  0  0
    1.4289    0.8250    0.0000 O   0  0  0  0  0  0  0  0  0  0  0  0
   -0.0000    0.0000    0.0000 C   0  0  0  0  0  0  0  0  0  0  0  0
    0.7145    1.2375    0.0000 C   0  0  0  0  0  0  0  0  0  0  0  0
   -0.0000    0.8250    0.0000 C   0  0  0  0  0  0  0  0  0  0  0  0
   -0.7145    1.2375    0.0000 C   0  0  0  0  0  0  0  0  0  0  0  0
   -0.7145    2.0625    0.0000 C   0  0  0  0  0  0  0  0  0  0  0  0
   -0.0000    2.4750    0.0000 C   0  0  0  0  0  0  0  0  0  0  0  0
    0.7145    2.0625    0.0000 N   0  0  0  0  0  0  0  0  0  0  0  0
   -0.7145   -0.4125    0.0000 N   0  0  0  0  0  0  0  0  0  0  0  0
   -0.7145   -1.2375    0.0000 C   0  0  0  0  0  0  0  0  0  0  0  0
   -1.4289   -1.6500    0.0000 C   0  0  0  0  0  0  0  0  0  0  0  0
   -2.1434   -1.2375    0.0000 N   0  0  0  0  0  0  0  0  0  0  0  0
   -2.1434   -0.4125    0.0000 C   0  0  0  0  0  0  0  0  0  0  0  0
   -1.4289    0.0000    0.0000 C   0  0  0  0  0  0  0  0  0  0  0  0
   -2.8579   -1.6500    0.0000 C   0  0  0  0  0  0  0  0  0  0  0  0
   -3.5724   -1.2375    0.0000 C   0  0  0  0  0  0  0  0  0  0  0  0
    1.4289   -2.4750    0.0000 Cl  0  0  0  0  0  0  0  0  0  0  0  0
  1  2  2  0      
  2  3  1  0      
  3  4  2  0      
  4  5  1  0      
  5  6  2  0      
  6  7  1  0      
  7  8  2  0      
  8  9  1  0      
  9 10  2  0      
  1 10  1  0      
  5 10  1  0      
  9 11  1  0      
 13 14  1  0      
 14 15  2  0      
 15 16  1  0      
 16 17  2  0      
 17 18  1  0      
 13 18  2  0      
 12 14  1  0      
 19 20  1  0      
 20 21  1  0      
 21 22  1  0      
 22 23  1  0      
 23 24  1  0      
 19 24  1  0      
 25 26  1  0      
 22 25  1  0      
 12 19  1  0      
  8 12  1  0      
  6 27  1  0      
M  END

>  <RackCode>
HYCPK72335

>  <Cat. No.>
HY-112719

>  <Product Name>
BRD 4354

>  <ROW>
C

>  <COLUMN>
6

>  <CAS No.>
315698-07-8

>  <MWt>
382.89

>  <Target>
HDAC

>  <Saltdate>
Free Base

>  <Smiles>
OC1=C2N=CC=CC2=C(Cl)C=C1C(N3CCN(CC)CC3)C4=CC=CN=C4

>  <Solvent>
DMSO Solution

>  <Batch No.>
64126

>  <Quantity>
10mM  * 50uL

>  <Pathway>
Cell Cycle/DNA Damage; Epigenetics

>  <Synonyms>


>  <Formula>
C21H23ClN4O

>  <Research_Area>
Cancer

>  <Clinical_Information>
No Development Reported

>  <SUPPLIER>
MedChemExpress

$$$$
Untitled Document
  ChemDraw02252010072D

 47 53  0  0  0  0  0  0  0  0999 V2000
   -3.5824    1.7308    0.0000 C   0  0  0  0  0  0  0  0  0  0  0  0
   -3.6972    0.9139    0.0000 O   0  0  0  0  0  0  0  0  0  0  0  0
   -4.2325    2.2388    0.0000 O   0  0  0  0  0  0  0  0  0  0  0  0
   -2.8175    2.0399    0.0000 N   0  0  0  0  0  0  0  0  0  0  0  0
   -2.7027    2.8569    0.0000 C   0  0  0  0  0  0  0  0  0  0  0  0
   -4.4621    0.6048    0.0000 C   0  0  0  0  0  0  0  0  0  0  0  0
   -4.6617   -0.1957    0.0000 C   0  0  0  0  0  0  0  0  0  0  0  0
   -5.4847   -0.2532    0.0000 C   0  0  0  0  0  0  0  0  0  0  0  0
   -5.7938    0.5117    0.0000 C   0  0  0  0  0  0  0  0  0  0  0  0
   -5.1618    1.0420    0.0000 C   0  0  0  0  0  0  0  0  0  0  0  0
   -3.8133   -2.8569    0.0000 C   0  0  0  0  0  0  0  0  0  0  0  0
   -3.0988   -2.4444    0.0000 N   0  0  0  0  0  0  0  0  0  0  0  0
   -3.0988   -1.6194    0.0000 C   0  0  0  0  0  0  0  0  0  0  0  0
   -3.8133   -1.2069    0.0000 C   0  0  0  0  0  0  0  0  0  0  0  0
   -4.5277   -1.6194    0.0000 C   0  0  0  0  0  0  0  0  0  0  0  0
   -5.2422   -1.2069    0.0000 C   0  0  0  0  0  0  0  0  0  0  0  0
   -5.9567   -1.6194    0.0000 C   0  0  0  0  0  0  0  0  0  0  0  0
   -5.9567   -2.4444    0.0000 C   0  0  0  0  0  0  0  0  0  0  0  0
   -5.2422   -2.8569    0.0000 C   0  0  0  0  0  0  0  0  0  0  0  0
   -4.5277   -2.4444    0.0000 C   0  0  0  0  0  0  0  0  0  0  0  0
   -2.2224    0.6891    0.0000 N   0  0  0  0  0  0  0  0  0  0  0  0
   -1.9402   -0.0861    0.0000 C   0  0  0  0  0  0  0  0  0  0  0  0
   -2.4705   -0.7181    0.0000 C   0  0  0  0  0  0  0  0  0  0  0  0
   -3.2830   -0.5749    0.0000 C   0  0  0  0  0  0  0  0  0  0  0  0
   -3.5651    0.2004    0.0000 C   0  0  0  0  0  0  0  0  0  0  0  0
   -3.0348    0.8324    0.0000 C   0  0  0  0  0  0  0  0  0  0  0  0
   -1.6921    1.3211    0.0000 C   0  0  0  0  0  0  0  0  0  0  0  0
    0.2694    0.9752    0.0000 N   0  0  0  0  0  0  0  0  0  0  0  0
   -0.4064    0.5020    0.0000 C   0  0  0  0  0  0  0  0  0  0  0  0
   -0.8796    1.1778    0.0000 C   0  0  0  0  0  0  0  0  0  0  0  0
   -0.2038    1.6510    0.0000 C   0  0  0  0  0  0  0  0  0  0  0  0
    1.0819    0.8320    0.0000 C   0  0  0  0  0  0  0  0  0  0  0  0
    1.6122    1.4640    0.0000 C   0  0  0  0  0  0  0  0  0  0  0  0
    2.4246    1.3207    0.0000 C   0  0  0  0  0  0  0  0  0  0  0  0
    2.7068    0.5454    0.0000 C   0  0  0  0  0  0  0  0  0  0  0  0
    2.1765   -0.0865    0.0000 C   0  0  0  0  0  0  0  0  0  0  0  0
    1.3640    0.0567    0.0000 C   0  0  0  0  0  0  0  0  0  0  0  0
    3.5193    0.4022    0.0000 S   0  0  0  0  0  0  0  0  0  0  0  0
    3.3760   -0.4103    0.0000 O   0  0  0  0  0  0  0  0  0  0  0  0
    3.6625    1.2147    0.0000 O   0  0  0  0  0  0  0  0  0  0  0  0
    5.4264   -0.6596    0.0000 C   0  0  0  0  0  0  0  0  0  0  0  0
    4.6139   -0.5163    0.0000 C   0  0  0  0  0  0  0  0  0  0  0  0
    4.3317    0.2589    0.0000 C   0  0  0  0  0  0  0  0  0  0  0  0
    4.8620    0.8909    0.0000 C   0  0  0  0  0  0  0  0  0  0  0  0
    5.6745    0.7477    0.0000 C   0  0  0  0  0  0  0  0  0  0  0  0
    5.9567   -0.0276    0.0000 N   0  0  0  0  0  0  0  0  0  0  0  0
   -2.3843   -2.8569    0.0000 C   0  0  0  0  0  0  0  0  0  0  0  0
  1  2  1  0      
  1  3  2  0      
  1  4  1  0      
  4  5  1  0      
  6  7  1  0      
  7  8  1  1      
  8  9  1  0      
  9 10  1  0      
  6 10  1  0      
 11 12  1  0      
 12 13  1  0      
 13 14  1  0      
 14 15  1  0      
 15 16  1  0      
 16 17  2  0      
 17 18  1  0      
 18 19  2  0      
 19 20  1  0      
 11 20  1  0      
 15 20  2  0      
 21 22  1  0      
 22 23  1  0      
 23 24  1  0      
 24 25  1  0      
 25 26  1  0      
 21 26  1  0      
 28 29  1  0      
 29 30  1  0      
 30 31  1  0      
 28 31  1  0      
 32 33  1  0      
 33 34  2  0      
 34 35  1  0      
 35 36  2  0      
 36 37  1  0      
 32 37  2  0      
 38 39  2  0      
 38 40  2  0      
 41 42  1  0      
 42 43  2  0      
 43 44  1  0      
 44 45  2  0      
 45 46  1  0      
 41 46  2  0      
 38 43  1  0      
 35 38  1  0      
 28 32  1  0      
 27 30  1  0      
 21 27  1  0      
 14 24  1  1      
 12 47  1  0      
  7 14  1  0      
  6  2  1  6      
M  END

>  <RackCode>
HYCPK72335

>  <Cat. No.>
HY-128347

>  <Product Name>
M?89

>  <ROW>
D

>  <COLUMN>
6

>  <CAS No.>
2363165-42-6

>  <MWt>
657.87

>  <Target>
Epigenetic Reader Domain

>  <Saltdate>
Free Base

>  <Smiles>
O=C(NC)O[C@@H]1[C@@H]([C@]2(C3CCN(CC4CN(C5=CC=C(S(=O)(C6=CC=NC=C6)=O)C=C5)C4)CC3)CN(C)CC7=C2C=CC=C7)CCC1

>  <Solvent>
DMSO Solution

>  <Batch No.>
78873

>  <Quantity>
10mM  * 50uL

>  <Pathway>
Epigenetics

>  <Synonyms>


>  <Formula>
C37H47N5O4S

>  <Research_Area>
Cancer; Inflammation/Immunology

>  <Clinical_Information>
No Development Reported

>  <SUPPLIER>
MedChemExpress

$$$$
Untitled Document
  ChemDraw09081615232D

 38 39  0  0  0  0  0  0  0  0999 V2000
    0.7145   -0.8250    0.0000 C   0  0  0  0  0  0  0  0  0  0  0  0
    0.0000   -0.4125    0.0000 C   0  0  0  0  0  0  0  0  0  0  0  0
    0.0000    0.4125    0.0000 C   0  0  0  0  0  0  0  0  0  0  0  0
    0.7145    0.8250    0.0000 C   0  0  0  0  0  0  0  0  0  0  0  0
    0.7145    1.6500    0.0000 C   0  0  0  0  0  0  0  0  0  0  0  0
    0.7145   -1.6500    0.0000 O   0  0  0  0  0  0  0  0  0  0  0  0
    1.4289   -0.4125    0.0000 N   0  0  0  0  0  0  0  0  0  0  0  0
    1.4289    2.0625    0.0000 N   0  0  0  0  0  0  0  0  0  0  0  0
    1.4289    2.8875    0.0000 C   0  0  0  0  0  0  0  0  0  0  0  0
    0.7145    3.3000    0.0000 N   0  0  0  0  0  0  0  0  0  0  0  0
    2.1434    3.3000    0.0000 N   0  0  0  0  0  0  0  0  0  0  0  0
    2.8579   -0.4125    0.0000 C   0  0  0  0  0  0  0  0  0  0  0  0
    2.1434   -0.8250    0.0000 C   0  0  0  0  0  0  0  0  0  0  0  0
    2.1434   -1.6500    0.0000 C   0  0  0  0  0  0  0  0  0  0  0  0
    2.8579   -2.0625    0.0000 C   0  0  0  0  0  0  0  0  0  0  0  0
    3.5724   -1.6500    0.0000 C   0  0  0  0  0  0  0  0  0  0  0  0
    4.2868   -2.0625    0.0000 C   0  0  0  0  0  0  0  0  0  0  0  0
    4.2868   -2.8875    0.0000 C   0  0  0  0  0  0  0  0  0  0  0  0
    3.5724   -3.3000    0.0000 C   0  0  0  0  0  0  0  0  0  0  0  0
    2.8579   -2.8875    0.0000 C   0  0  0  0  0  0  0  0  0  0  0  0
    2.8579    0.4125    0.0000 O   0  0  0  0  0  0  0  0  0  0  0  0
    3.5724   -0.8250    0.0000 N   0  0  0  0  0  0  0  0  0  0  0  0
   -1.4289   -0.4125    0.0000 C   0  0  0  0  0  0  0  0  0  0  0  0
   -2.1434   -0.8250    0.0000 C   0  0  0  0  0  0  0  0  0  0  0  0
   -2.1434   -1.6500    0.0000 C   0  0  0  0  0  0  0  0  0  0  0  0
   -1.4289    0.4125    0.0000 O   0  0  0  0  0  0  0  0  0  0  0  0
   -0.7145   -0.8250    0.0000 N   0  0  0  0  0  0  0  0  0  0  0  0
   -1.4289   -2.0625    0.0000 C   0  0  0  0  0  0  0  0  0  0  0  0
   -0.7145   -1.6500    0.0000 C   0  0  0  0  0  0  0  0  0  0  0  0
    0.0000   -2.0625    0.0000 C   0  0  0  0  0  0  0  0  0  0  0  0
    0.0000   -2.8875    0.0000 C   0  0  0  0  0  0  0  0  0  0  0  0
   -0.7145   -3.3000    0.0000 C   0  0  0  0  0  0  0  0  0  0  0  0
   -1.4289   -2.8875    0.0000 C   0  0  0  0  0  0  0  0  0  0  0  0
    0.7145   -3.3000    0.0000 O   0  0  0  0  0  0  0  0  0  0  0  0
   -3.5724   -0.8250    0.0000 C   0  0  0  0  0  0  0  0  0  0  0  0
   -4.2868   -0.4125    0.0000 C   0  0  0  0  0  0  0  0  0  0  0  0
   -3.5724   -1.6500    0.0000 O   0  0  0  0  0  0  0  0  0  0  0  0
   -2.8579   -0.4125    0.0000 N   0  0  0  0  0  0  0  0  0  0  0  0
  1  2  1  0      
  2  3  1  6      
  3  4  1  0      
  4  5  1  0      
  1  6  2  0      
  1  7  1  0      
  8  9  1  0      
  9 10  2  0      
  9 11  1  0      
  5  8  1  0      
 12 13  1  0      
 13 14  1  1      
 15 16  1  0      
 16 17  2  0      
 17 18  1  0      
 18 19  2  0      
 19 20  1  0      
 15 20  2  0      
 14 15  1  0      
 12 21  2  0      
 12 22  1  0      
  7 13  1  0      
 23 24  1  0      
 24 25  1  1      
 23 26  2  0      
 23 27  1  0      
 28 29  1  0      
 29 30  2  0      
 30 31  1  0      
 31 32  2  0      
 32 33  1  0      
 28 33  2  0      
 31 34  1  0      
 25 28  1  0      
 35 36  1  0      
 35 37  2  0      
 35 38  1  0      
 24 38  1  0      
  2 27  1  0      
M  END

>  <RackCode>
HYCPK72335

>  <Cat. No.>
HY-100538

>  <Product Name>
DTP3

>  <ROW>
E

>  <COLUMN>
6

>  <CAS No.>
1809784-29-9

>  <MWt>
525.60

>  <Target>
DNA/RNA Synthesis; JAK

>  <Saltdate>


>  <Smiles>
O=C(N[C@H](CC1=CC=CC=C1)C(N)=O)[C@H](NC([C@H](NC(C)=O)CC2=CC=C(O)C=C2)=O)CCCNC(N)=N

>  <Solvent>
DMSO Solution

>  <Batch No.>
110934

>  <Quantity>
10mM  * 50uL

>  <Pathway>
Cell Cycle/DNA Damage; Epigenetics; JAK/STAT Signaling; Protein Tyrosine Kinase/RTK; Stem Cell/Wnt

>  <Synonyms>


>  <Formula>
C26H35N7O5

>  <Research_Area>
Cancer

>  <Clinical_Information>
No Development Reported

>  <SUPPLIER>
MedChemExpress

$$$$
Untitled Document
  ChemDraw05101917262D

 21 21  0  0  0  0  0  0  0  0999 V2000
    5.0013   -0.0000    0.0000 C   0  0  0  0  0  0  0  0  0  0  0  0
    4.2868   -0.4125    0.0000 C   0  0  0  0  0  0  0  0  0  0  0  0
    3.5724   -0.0000    0.0000 C   0  0  0  0  0  0  0  0  0  0  0  0
    2.8579   -0.4125    0.0000 C   0  0  0  0  0  0  0  0  0  0  0  0
    2.1434   -0.0000    0.0000 C   0  0  0  0  0  0  0  0  0  0  0  0
    1.4289   -0.4125    0.0000 C   0  0  0  0  0  0  0  0  0  0  0  0
    1.4289   -1.2375    0.0000 O   0  0  0  0  0  0  0  0  0  0  0  0
    0.7145    0.0000    0.0000 C   0  0  0  0  0  0  0  0  0  0  0  0
    0.0000   -0.4125    0.0000 C   0  0  0  0  0  0  0  0  0  0  0  0
   -0.7145   -0.0000    0.0000 C   0  0  0  0  0  0  0  0  0  0  0  0
   -1.4289   -0.4125    0.0000 C   0  0  0  0  0  0  0  0  0  0  0  0
   -2.1434   -0.0000    0.0000 C   0  0  0  0  0  0  0  0  0  0  0  0
   -2.1434    0.8250    0.0000 C   0  0  0  0  0  0  0  0  0  0  0  0
   -2.8579    1.2375    0.0000 C   0  0  0  0  0  0  0  0  0  0  0  0
   -3.5724    0.8250    0.0000 C   0  0  0  0  0  0  0  0  0  0  0  0
   -4.2868    1.2375    0.0000 O   0  0  0  0  0  0  0  0  0  0  0  0
   -3.5724   -0.0000    0.0000 C   0  0  0  0  0  0  0  0  0  0  0  0
   -4.2868   -0.4125    0.0000 O   0  0  0  0  0  0  0  0  0  0  0  0
   -5.0013   -0.0000    0.0000 C   0  0  0  0  0  0  0  0  0  0  0  0
   -2.8579   -0.4125    0.0000 C   0  0  0  0  0  0  0  0  0  0  0  0
    0.0000   -1.2375    0.0000 O   0  0  0  0  0  0  0  0  0  0  0  0
  1  2  1  0      
  2  3  1  0      
  3  4  1  0      
  4  5  1  0      
  5  6  1  0      
  6  7  1  6      
  6  8  1  0      
  8  9  1  0      
  9 10  1  0      
 10 11  1  0      
 11 12  1  0      
 12 13  2  0      
 13 14  1  0      
 14 15  2  0      
 15 16  1  0      
 15 17  1  0      
 17 18  1  0      
 18 19  1  0      
 17 20  2  0      
 12 20  1  0      
  9 21  2  0      
M  END

>  <RackCode>
HYCPK72335

>  <Cat. No.>
HY-14615

>  <Product Name>
[6]-Gingerol

>  <ROW>
F

>  <COLUMN>
6

>  <CAS No.>
23513-14-6

>  <MWt>
294.39

>  <Target>
AMPK; Apoptosis

>  <Saltdate>
Free Base

>  <Smiles>
CCCCC[C@H](O)CC(CCC1=CC=C(O)C(OC)=C1)=O

>  <Solvent>
DMSO Solution

>  <Batch No.>
241178

>  <Quantity>
10mM  * 50uL

>  <Pathway>
Apoptosis; Epigenetics; PI3K/Akt/mTOR

>  <Synonyms>
(S)-(+)-[6]Gingerol

>  <Formula>
C17H26O4

>  <Research_Area>
Cancer

>  <Clinical_Information>
No Development Reported

>  <SUPPLIER>
MedChemExpress

$$$$
Untitled Document
  ChemDraw03281909052D

 26 28  0  0  0  0  0  0  0  0999 V2000
   -3.1866   -1.4562    0.0000 C   0  0  0  0  0  0  0  0  0  0  0  0
   -3.1866   -2.2812    0.0000 C   0  0  0  0  0  0  0  0  0  0  0  0
   -2.4722   -2.6937    0.0000 C   0  0  0  0  0  0  0  0  0  0  0  0
   -1.7577   -2.2812    0.0000 C   0  0  0  0  0  0  0  0  0  0  0  0
   -1.7577   -1.4562    0.0000 C   0  0  0  0  0  0  0  0  0  0  0  0
   -2.4722   -1.0437    0.0000 C   0  0  0  0  0  0  0  0  0  0  0  0
   -3.8986   -2.6923    0.0000 O   0  0  0  0  0  0  0  0  0  0  0  0
   -1.0457   -1.0451    0.0000 N   0  0  0  0  0  0  0  0  0  0  0  0
   -0.3337   -1.4562    0.0000 N   0  0  0  0  0  0  0  0  0  0  0  0
    0.3783   -1.0451    0.0000 C   0  0  0  0  0  0  0  0  0  0  0  0
    1.0927   -1.4576    0.0000 C   0  0  0  0  0  0  0  0  0  0  0  0
    1.8072   -1.0451    0.0000 C   0  0  0  0  0  0  0  0  0  0  0  0
    1.8072   -0.2201    0.0000 C   0  0  0  0  0  0  0  0  0  0  0  0
    1.0927    0.1924    0.0000 C   0  0  0  0  0  0  0  0  0  0  0  0
    0.3783   -0.2201    0.0000 C   0  0  0  0  0  0  0  0  0  0  0  0
    3.2312    0.6020    0.0000 N   0  0  0  0  0  0  0  0  0  0  0  0
    2.5192    0.1909    0.0000 S   0  0  0  0  0  0  0  0  0  0  0  0
   -3.8986   -1.0451    0.0000 C   0  0  0  0  0  0  0  0  0  0  0  0
   -1.0457   -2.6923    0.0000 N   0  0  0  0  0  0  0  0  0  0  0  0
    2.1081    0.9029    0.0000 O   0  0  0  0  0  0  0  0  0  0  0  0
    2.9303   -0.5210    0.0000 O   0  0  0  0  0  0  0  0  0  0  0  0
    3.2312    1.4241    0.0000 C   0  0  0  0  0  0  0  0  0  0  0  0
    3.8986    1.9091    0.0000 C   0  0  0  0  0  0  0  0  0  0  0  0
    3.6437    2.6937    0.0000 C   0  0  0  0  0  0  0  0  0  0  0  0
    2.8187    2.6937    0.0000 C   0  0  0  0  0  0  0  0  0  0  0  0
    2.5638    1.9091    0.0000 C   0  0  0  0  0  0  0  0  0  0  0  0
  1  2  2  0      
  2  3  1  0      
  3  4  2  0      
  4  5  1  0      
  5  6  2  0      
  6  1  1  0      
  2  7  1  0      
  5  8  1  0      
  8  9  2  0      
  9 10  1  0      
 10 11  2  0      
 11 12  1  0      
 12 13  2  0      
 13 14  1  0      
 14 15  2  0      
 15 10  1  0      
 16 17  1  0      
 17 13  1  0      
  1 18  1  0      
  4 19  1  0      
 17 20  2  0      
 17 21  2  0      
 16 22  1  0      
 22 23  1  0      
 23 24  1  0      
 24 25  1  0      
 25 26  1  0      
 26 22  1  0      
M  END

>  <RackCode>
HYCPK72335

>  <Cat. No.>
HY-112150

>  <Product Name>
ZL0454

>  <ROW>
G

>  <COLUMN>
6

>  <CAS No.>
2229042-77-5

>  <MWt>
374.46

>  <Target>
Epigenetic Reader Domain

>  <Saltdate>
Free Base

>  <Smiles>
OC1=C(C)C=C(/N=N/C2=CC=C(S(NC3CCCC3)(=O)=O)C=C2)C(N)=C1

>  <Solvent>
DMSO Solution

>  <Batch No.>
149222

>  <Quantity>
10mM  * 50uL

>  <Pathway>
Epigenetics

>  <Synonyms>


>  <Formula>
C18H22N4O3S

>  <Research_Area>
Inflammation/Immunology

>  <Clinical_Information>
No Development Reported

>  <SUPPLIER>
MedChemExpress

$$$$
Untitled Document
  ChemDraw01031911022D

 29 30  0  0  0  0  0  0  0  0999 V2000
   -1.0717   -1.4437    0.0000 C   0  0  0  0  0  0  0  0  0  0  0  0
   -1.0717   -0.6187    0.0000 C   0  0  0  0  0  0  0  0  0  0  0  0
   -1.7862   -0.2062    0.0000 C   0  0  0  0  0  0  0  0  0  0  0  0
   -2.5006   -0.6187    0.0000 C   0  0  0  0  0  0  0  0  0  0  0  0
   -3.2151   -0.2062    0.0000 C   0  0  0  0  0  0  0  0  0  0  0  0
   -3.9296   -0.6187    0.0000 C   0  0  0  0  0  0  0  0  0  0  0  0
   -4.6441   -1.0312    0.0000 F   0  0  0  0  0  0  0  0  0  0  0  0
   -3.9296   -1.4437    0.0000 F   0  0  0  0  0  0  0  0  0  0  0  0
   -4.6441   -0.2062    0.0000 F   0  0  0  0  0  0  0  0  0  0  0  0
   -3.2151    0.6188    0.0000 C   0  0  0  0  0  0  0  0  0  0  0  0
   -2.5006    1.0313    0.0000 C   0  0  0  0  0  0  0  0  0  0  0  0
   -1.7862    0.6188    0.0000 C   0  0  0  0  0  0  0  0  0  0  0  0
   -0.3572   -0.2062    0.0000 N   0  0  0  0  0  0  0  0  0  0  0  0
    0.3572   -0.6187    0.0000 O   0  0  0  0  0  0  0  0  0  0  0  0
    1.0717   -0.2062    0.0000 C   0  0  0  0  0  0  0  0  0  0  0  0
    1.7862   -0.6187    0.0000 C   0  0  0  0  0  0  0  0  0  0  0  0
    2.5006   -0.2062    0.0000 C   0  0  0  0  0  0  0  0  0  0  0  0
    2.5006    0.6188    0.0000 C   0  0  0  0  0  0  0  0  0  0  0  0
    3.2151    1.0313    0.0000 C   0  0  0  0  0  0  0  0  0  0  0  0
    3.9296    0.6188    0.0000 O   0  0  0  0  0  0  0  0  0  0  0  0
    4.6441    1.0313    0.0000 C   0  0  0  0  0  0  0  0  0  0  0  0
    3.2151    1.8563    0.0000 O   0  0  0  0  0  0  0  0  0  0  0  0
    1.7862    1.0313    0.0000 N   0  0  0  0  0  0  0  0  0  0  0  0
    1.0717    0.6188    0.0000 O   0  0  0  0  0  0  0  0  0  0  0  0
    0.3572    1.0313    0.0000 C   0  0  0  0  0  0  0  0  0  0  0  0
    3.2151   -0.6187    0.0000 C   0  0  0  0  0  0  0  0  0  0  0  0
    3.2151   -1.4438    0.0000 C   0  0  0  0  0  0  0  0  0  0  0  0
    2.5006   -1.8563    0.0000 C   0  0  0  0  0  0  0  0  0  0  0  0
    1.7862   -1.4437    0.0000 C   0  0  0  0  0  0  0  0  0  0  0  0
  1  2  1  0      
  2  3  1  0      
  3  4  2  0      
  4  5  1  0      
  5  6  1  0      
  6  7  1  0      
  6  8  1  0      
  6  9  1  0      
  5 10  2  0      
 10 11  1  0      
 11 12  2  0      
  3 12  1  0      
  2 13  2  0      
 13 14  1  0      
 14 15  1  0      
 15 16  1  0      
 16 17  2  0      
 17 18  1  0      
 18 19  1  0      
 19 20  1  0      
 20 21  1  0      
 19 22  2  0      
 18 23  2  0      
 23 24  1  0      
 24 25  1  0      
 17 26  1  0      
 26 27  2  0      
 27 28  1  0      
 28 29  2  0      
 16 29  1  0      
M  END

>  <RackCode>
HYCPK72335

>  <Cat. No.>
HY-123230

>  <Product Name>
Trifloxystrobin

>  <ROW>
H

>  <COLUMN>
6

>  <CAS No.>
141517-21-7

>  <MWt>
408.37

>  <Target>
Apoptosis; Caspase; Fungal; PARP

>  <Saltdate>
Free Base

>  <Smiles>
C/C(C1=CC(C(F)(F)F)=CC=C1)=N\OCC2=C(C=CC=C2)/C(C(OC)=O)=N\OC

>  <Solvent>
DMSO Solution

>  <Batch No.>
39745

>  <Quantity>
10mM  * 50uL

>  <Pathway>
Anti-infection; Apoptosis; Cell Cycle/DNA Damage; Epigenetics

>  <Synonyms>
CGA 279202

>  <Formula>
C20H19F3N2O4

>  <Research_Area>
Infection; Neurological Disease

>  <Clinical_Information>
No Development Reported

>  <SUPPLIER>
MedChemExpress

$$$$
Untitled Document
  ChemDraw08261609102D

 29 32  0  0  0  0  0  0  0  0999 V2000
   -4.0931   -0.4339    0.0000 C   0  0  0  0  0  0  0  0  0  0  0  0
   -3.3786   -0.8464    0.0000 C   0  0  0  0  0  0  0  0  0  0  0  0
   -2.6642   -0.4339    0.0000 C   0  0  0  0  0  0  0  0  0  0  0  0
   -2.6642    0.3911    0.0000 C   0  0  0  0  0  0  0  0  0  0  0  0
   -3.3786    0.8036    0.0000 C   0  0  0  0  0  0  0  0  0  0  0  0
   -4.0931    0.3911    0.0000 C   0  0  0  0  0  0  0  0  0  0  0  0
   -2.0192   -0.9483    0.0000 C   0  0  0  0  0  0  0  0  0  0  0  0
   -1.2148   -0.7647    0.0000 C   0  0  0  0  0  0  0  0  0  0  0  0
   -0.8569   -0.0214    0.0000 N   0  0  0  0  0  0  0  0  0  0  0  0
   -1.2148    0.7219    0.0000 C   0  0  0  0  0  0  0  0  0  0  0  0
   -2.0192    0.9055    0.0000 C   0  0  0  0  0  0  0  0  0  0  0  0
   -0.0319   -0.0214    0.0000 C   0  0  0  0  0  0  0  0  0  0  0  0
    0.3806   -0.7359    0.0000 C   0  0  0  0  0  0  0  0  0  0  0  0
    1.2056   -0.7359    0.0000 C   0  0  0  0  0  0  0  0  0  0  0  0
    1.6181   -0.0214    0.0000 N   0  0  0  0  0  0  0  0  0  0  0  0
    1.2056    0.6931    0.0000 C   0  0  0  0  0  0  0  0  0  0  0  0
    0.3806    0.6931    0.0000 N   0  0  0  0  0  0  0  0  0  0  0  0
    1.2075    2.1648    0.0000 N   0  0  0  0  0  0  0  0  0  0  0  0
    1.6200    1.4504    0.0000 C   0  0  0  0  0  0  0  0  0  0  0  0
    2.4450    1.4504    0.0000 C   0  0  0  0  0  0  0  0  0  0  0  0
    2.8575    2.1648    0.0000 C   0  0  0  0  0  0  0  0  0  0  0  0
    2.4450    2.8793    0.0000 C   0  0  0  0  0  0  0  0  0  0  0  0
    1.6200    2.8793    0.0000 C   0  0  0  0  0  0  0  0  0  0  0  0
    1.6181   -1.4504    0.0000 N   0  0  0  0  0  0  0  0  0  0  0  0
    2.4431   -1.4504    0.0000 C   0  0  0  0  0  0  0  0  0  0  0  0
    2.8556   -2.1648    0.0000 C   0  0  0  0  0  0  0  0  0  0  0  0
    3.6806   -2.1648    0.0000 C   0  0  0  0  0  0  0  0  0  0  0  0
    4.0931   -2.8793    0.0000 O   0  0  0  0  0  0  0  0  0  0  0  0
    4.0931   -1.4504    0.0000 O   0  0  0  0  0  0  0  0  0  0  0  0
  1  2  2  0      
  2  3  1  0      
  3  4  2  0      
  4  5  1  0      
  5  6  2  0      
  6  1  1  0      
  3  7  1  0      
  7  8  1  0      
  8  9  1  0      
  9 10  1  0      
 10 11  1  0      
 11  4  1  0      
  9 12  1  0      
 12 13  2  0      
 13 14  1  0      
 14 15  2  0      
 15 16  1  0      
 16 17  2  0      
 17 12  1  0      
 18 19  2  0      
 19 20  1  0      
 20 21  2  0      
 21 22  1  0      
 22 23  2  0      
 23 18  1  0      
 19 16  1  0      
 14 24  1  0      
 24 25  1  0      
 25 26  1  0      
 26 27  1  0      
 27 28  1  0      
 27 29  2  0      
M  END

>  <RackCode>
HYCPK72335

>  <Cat. No.>
HY-15648

>  <Product Name>
GSK-J1

>  <ROW>
I

>  <COLUMN>
6

>  <CAS No.>
1373422-53-7

>  <MWt>
389.45

>  <Target>
Histone Demethylase

>  <Saltdate>
Free Acid

>  <Smiles>
OC(CCNC1=NC(C2=NC=CC=C2)=NC(N(CC3)CCC4=C3C=CC=C4)=C1)=O

>  <Solvent>
DMSO Solution

>  <Batch No.>
244636

>  <Quantity>
10mM  * 50uL

>  <Pathway>
Epigenetics

>  <Synonyms>


>  <Formula>
C22H23N5O2

>  <Research_Area>
Cancer

>  <Clinical_Information>
No Development Reported

>  <SUPPLIER>
MedChemExpress

$$$$
Untitled Document
  ChemDraw09041712562D

 35 38  0  0  0  0  0  0  0  0999 V2000
   -3.5528    1.8320    0.0000 N   0  0  0  0  0  0  0  0  0  0  0  0
    0.8504   -1.4868    0.0000 C   0  0  0  0  0  0  0  0  0  0  0  0
    0.8504   -2.3117    0.0000 C   0  0  0  0  0  0  0  0  0  0  0  0
    1.5649   -2.7243    0.0000 C   0  0  0  0  0  0  0  0  0  0  0  0
    2.2793   -2.3117    0.0000 C   0  0  0  0  0  0  0  0  0  0  0  0
    2.2793   -1.4868    0.0000 C   0  0  0  0  0  0  0  0  0  0  0  0
    1.5649   -1.0742    0.0000 C   0  0  0  0  0  0  0  0  0  0  0  0
    3.0640   -2.5667    0.0000 N   0  0  0  0  0  0  0  0  0  0  0  0
    3.5492   -1.8994    0.0000 C   0  0  0  0  0  0  0  0  0  0  0  0
    3.0640   -1.2318    0.0000 C   0  0  0  0  0  0  0  0  0  0  0  0
    4.3747   -1.8994    0.0000 O   0  0  0  0  0  0  0  0  0  0  0  0
    3.3189   -0.4473    0.0000 C   0  0  0  0  0  0  0  0  0  0  0  0
    2.7668    0.1660    0.0000 C   0  0  0  0  0  0  0  0  0  0  0  0
    3.1466    0.8983    0.0000 C   0  0  0  0  0  0  0  0  0  0  0  0
    2.5672    1.4857    0.0000 C   0  0  0  0  0  0  0  0  0  0  0  0
    1.8296    1.1164    0.0000 C   0  0  0  0  0  0  0  0  0  0  0  0
    1.9529    0.3008    0.0000 O   0  0  0  0  0  0  0  0  0  0  0  0
    0.1360   -1.0742    0.0000 Cl  0  0  0  0  0  0  0  0  0  0  0  0
    1.0973    1.4961    0.0000 C   0  0  0  0  0  0  0  0  0  0  0  0
    1.0597    2.3201    0.0000 C   0  0  0  0  0  0  0  0  0  0  0  0
    0.3274    2.7000    0.0000 C   0  0  0  0  0  0  0  0  0  0  0  0
   -0.3676    2.2554    0.0000 C   0  0  0  0  0  0  0  0  0  0  0  0
   -0.3303    1.4313    0.0000 C   0  0  0  0  0  0  0  0  0  0  0  0
    0.4021    1.0517    0.0000 C   0  0  0  0  0  0  0  0  0  0  0  0
   -1.0253    0.9867    0.0000 C   0  0  0  0  0  0  0  0  0  0  0  0
   -0.9879    0.1627    0.0000 O   0  0  0  0  0  0  0  0  0  0  0  0
   -1.7578    1.3666    0.0000 N   0  0  0  0  0  0  0  0  0  0  0  0
   -1.7335    2.1911    0.0000 C   0  0  0  0  0  0  0  0  0  0  0  0
   -2.3631    2.7243    0.0000 C   0  0  0  0  0  0  0  0  0  0  0  0
   -3.1723    2.5645    0.0000 C   0  0  0  0  0  0  0  0  0  0  0  0
   -3.2161    1.0784    0.0000 C   0  0  0  0  0  0  0  0  0  0  0  0
   -2.4177    0.8714    0.0000 C   0  0  0  0  0  0  0  0  0  0  0  0
   -4.3747    1.8562    0.0000 C   0  0  0  0  0  0  0  0  0  0  0  0
   -2.4182   -1.2769    0.0000 H   0  0  0  0  0  0  0  0  0  0  0  0
   -1.5932   -1.2769    0.0000 Cl  0  0  0  0  0  0  0  0  0  0  0  0
  2  3  2  0      
  3  4  1  0      
  4  5  2  0      
  5  6  1  0      
  6  7  2  0      
  7  2  1  0      
  5  8  1  0      
  8  9  1  0      
  9 10  1  0      
 10  6  1  0      
  9 11  2  0      
 10 12  2  0      
 12 13  1  0      
 13 14  2  0      
 14 15  1  0      
 15 16  2  0      
 16 17  1  0      
 17 13  1  0      
  2 18  1  0      
 16 19  1  0      
 19 20  2  0      
 20 21  1  0      
 21 22  2  0      
 22 23  1  0      
 23 24  2  0      
 24 19  1  0      
 23 25  1  0      
 25 26  2  0      
 25 27  1  0      
 27 28  1  0      
 28 29  1  0      
 29 30  1  0      
 31 32  1  0      
 32 27  1  0      
 30  1  1  0      
 31  1  1  0      
  1 33  1  0      
 34 35  1  0      
M  END

>  <RackCode>
HYCPK72335

>  <Cat. No.>
HY-18095B

>  <Product Name>
CX-6258 (hydrochloride)

>  <ROW>
J

>  <COLUMN>
6

>  <CAS No.>
1353859-00-3

>  <MWt>
498.40

>  <Target>
Pim

>  <Saltdate>
Hydrochloride

>  <Smiles>
O=C1NC2=CC=C(Cl)C=C2/C1=C\C3=CC=C(C4=CC=CC(C(N5CCCN(C)CC5)=O)=C4)O3.[H]Cl

>  <Solvent>
DMSO Solution

>  <Batch No.>
104616

>  <Quantity>
10mM  * 50uL

>  <Pathway>
JAK/STAT Signaling

>  <Synonyms>


>  <Formula>
C26H25Cl2N3O3

>  <Research_Area>
Cancer

>  <Clinical_Information>
No Development Reported

>  <SUPPLIER>
MedChemExpress

$$$$
Untitled Document
  ChemDraw01081914352D

 14 16  0  0  0  0  0  0  0  0999 V2000
    0.4079   -1.6841    0.0000 O   0  0  0  0  0  0  0  0  0  0  0  0
    0.4079   -0.8591    0.0000 C   0  0  0  0  0  0  0  0  0  0  0  0
    1.1224   -0.4466    0.0000 N   0  0  0  0  0  0  0  0  0  0  0  0
    1.1224    0.3784    0.0000 C   0  0  0  0  0  0  0  0  0  0  0  0
    0.4079    0.7909    0.0000 C   0  0  0  0  0  0  0  0  0  0  0  0
    0.5795    1.5979    0.0000 C   0  0  0  0  0  0  0  0  0  0  0  0
    1.3999    1.6841    0.0000 C   0  0  0  0  0  0  0  0  0  0  0  0
    1.7355    0.9304    0.0000 S   0  0  0  0  0  0  0  0  0  0  0  0
   -0.3065    0.3784    0.0000 C   0  0  0  0  0  0  0  0  0  0  0  0
   -0.3065   -0.4466    0.0000 C   0  0  0  0  0  0  0  0  0  0  0  0
   -1.0210   -0.8591    0.0000 C   0  0  0  0  0  0  0  0  0  0  0  0
   -1.7355   -0.4466    0.0000 C   0  0  0  0  0  0  0  0  0  0  0  0
   -1.7355    0.3784    0.0000 C   0  0  0  0  0  0  0  0  0  0  0  0
   -1.0210    0.7909    0.0000 C   0  0  0  0  0  0  0  0  0  0  0  0
  1  2  2  0      
  2  3  1  0      
  3  4  1  0      
  4  5  2  0      
  5  6  1  0      
  6  7  2  0      
  7  8  1  0      
  4  8  1  0      
  5  9  1  0      
  9 10  2  0      
  2 10  1  0      
 10 11  1  0      
 11 12  2  0      
 12 13  1  0      
 13 14  2  0      
  9 14  1  0      
M  END

>  <RackCode>
HYCPK72335

>  <Cat. No.>
HY-121719

>  <Product Name>
TIQ-A

>  <ROW>
K

>  <COLUMN>
6

>  <CAS No.>
420849-22-5

>  <MWt>
201.24

>  <Target>
PARP

>  <Saltdate>


>  <Smiles>
O=C1NC2=C(C3=C1C=CC=C3)C=CS2

>  <Solvent>
DMSO Solution

>  <Batch No.>
213405

>  <Quantity>
10mM  * 50uL

>  <Pathway>
Cell Cycle/DNA Damage; Epigenetics

>  <Synonyms>


>  <Formula>
C11H7NOS

>  <Research_Area>
Cancer; Cardiovascular Disease

>  <Clinical_Information>
No Development Reported

>  <SUPPLIER>
MedChemExpress

$$$$
Untitled Document
  ChemDraw06101913072D

 38 42  0  0  0  0  0  0  0  0999 V2000
   -5.6947    0.4125    0.0000 C   0  0  0  0  0  0  0  0  0  0  0  0
   -5.6947   -0.4125    0.0000 C   0  0  0  0  0  0  0  0  0  0  0  0
   -4.9802   -0.8250    0.0000 C   0  0  0  0  0  0  0  0  0  0  0  0
   -4.2657   -0.4125    0.0000 C   0  0  0  0  0  0  0  0  0  0  0  0
   -4.2657    0.4125    0.0000 C   0  0  0  0  0  0  0  0  0  0  0  0
   -4.9802    0.8250    0.0000 C   0  0  0  0  0  0  0  0  0  0  0  0
   -6.4067   -0.8236    0.0000 N   0  0  0  0  0  0  0  0  0  0  0  0
   -7.1162   -0.4139    0.0000 C   0  0  0  0  0  0  0  0  0  0  0  0
   -6.4067   -1.6428    0.0000 C   0  0  0  0  0  0  0  0  0  0  0  0
   -3.5538    0.8236    0.0000 C   0  0  0  0  0  0  0  0  0  0  0  0
   -2.8442    0.4139    0.0000 N   0  0  0  0  0  0  0  0  0  0  0  0
   -3.5538    1.6428    0.0000 O   0  0  0  0  0  0  0  0  0  0  0  0
   -2.8442   -0.4111    0.0000 C   0  0  0  0  0  0  0  0  0  0  0  0
   -2.1298   -0.8236    0.0000 C   0  0  0  0  0  0  0  0  0  0  0  0
   -1.4153   -0.4111    0.0000 C   0  0  0  0  0  0  0  0  0  0  0  0
   -1.4153    0.4139    0.0000 C   0  0  0  0  0  0  0  0  0  0  0  0
   -2.1298    0.8264    0.0000 C   0  0  0  0  0  0  0  0  0  0  0  0
   -0.7008   -0.8236    0.0000 C   0  0  0  0  0  0  0  0  0  0  0  0
    0.0136   -0.4111    0.0000 C   0  0  0  0  0  0  0  0  0  0  0  0
    0.0136    0.4139    0.0000 C   0  0  0  0  0  0  0  0  0  0  0  0
   -0.7008    0.8264    0.0000 C   0  0  0  0  0  0  0  0  0  0  0  0
    0.7256   -0.8221    0.0000 C   0  0  0  0  0  0  0  0  0  0  0  0
    1.4351   -0.4125    0.0000 N   0  0  0  0  0  0  0  0  0  0  0  0
    0.7256   -1.6414    0.0000 O   0  0  0  0  0  0  0  0  0  0  0  0
    2.1422   -0.8207    0.0000 C   0  0  0  0  0  0  0  0  0  0  0  0
    2.8492   -0.4125    0.0000 C   0  0  0  0  0  0  0  0  0  0  0  0
    3.5538   -0.8193    0.0000 C   0  0  0  0  0  0  0  0  0  0  0  0
    2.8492    0.4010    0.0000 O   0  0  0  0  0  0  0  0  0  0  0  0
    4.2583   -0.4125    0.0000 N   0  0  0  0  0  0  0  0  0  0  0  0
    4.9728   -0.8250    0.0000 C   0  0  0  0  0  0  0  0  0  0  0  0
    5.6872   -0.4125    0.0000 C   0  0  0  0  0  0  0  0  0  0  0  0
    5.6872    0.4125    0.0000 C   0  0  0  0  0  0  0  0  0  0  0  0
    4.9728    0.8250    0.0000 C   0  0  0  0  0  0  0  0  0  0  0  0
    4.2583    0.4125    0.0000 C   0  0  0  0  0  0  0  0  0  0  0  0
    6.4017   -0.8250    0.0000 C   0  0  0  0  0  0  0  0  0  0  0  0
    7.1162   -0.4125    0.0000 C   0  0  0  0  0  0  0  0  0  0  0  0
    7.1162    0.4125    0.0000 C   0  0  0  0  0  0  0  0  0  0  0  0
    6.4017    0.8250    0.0000 C   0  0  0  0  0  0  0  0  0  0  0  0
  1  2  2  0      
  2  3  1  0      
  3  4  2  0      
  4  5  1  0      
  5  6  2  0      
  6  1  1  0      
  2  7  1  0      
  7  8  1  0      
  7  9  1  0      
  5 10  1  0      
 10 11  1  0      
 10 12  2  0      
 11 13  1  0      
 13 14  1  0      
 14 15  1  0      
 15 16  2  0      
 16 17  1  0      
 17 11  1  0      
 15 18  1  0      
 18 19  2  0      
 19 20  1  0      
 20 21  2  0      
 21 16  1  0      
 19 22  1  0      
 22 23  1  0      
 22 24  2  0      
 23 25  1  0      
 25 26  1  0      
 26 27  1  0      
 26 28  1  0      
 27 29  1  0      
 29 30  1  0      
 30 31  1  0      
 31 32  2  0      
 32 33  1  0      
 33 34  1  0      
 34 29  1  0      
 31 35  1  0      
 35 36  2  0      
 36 37  1  0      
 37 38  2  0      
 38 32  1  0      
M  END

>  <RackCode>
HYCPK72335

>  <Cat. No.>
HY-128579

>  <Product Name>
DW14800

>  <ROW>
L

>  <COLUMN>
6

>  <CAS No.>
2243709-60-4

>  <MWt>
512.64

>  <Target>
Histone Methyltransferase

>  <Saltdate>
Free Base

>  <Smiles>
CN(C)C1=CC=C(C(N2CCC(C=C(C(NCC(O)CN3CC(C=CC=C4)=C4CC3)=O)C=C5)=C5C2)=O)C=C1

>  <Solvent>
DMSO Solution

>  <Batch No.>
258101

>  <Quantity>
10mM  * 50uL

>  <Pathway>
Epigenetics

>  <Synonyms>


>  <Formula>
C31H36N4O3

>  <Research_Area>
Cancer

>  <Clinical_Information>
No Development Reported

>  <SUPPLIER>
MedChemExpress

$$$$
Untitled Document
  ChemDraw12281810522D

 25 27  0  0  0  0  0  0  0  0999 V2000
    2.5006    1.8563    0.0000 O   0  0  0  0  0  0  0  0  0  0  0  0
    2.5006    1.0312    0.0000 C   0  0  0  0  0  0  0  0  0  0  0  0
    3.2151    0.6187    0.0000 O   0  0  0  0  0  0  0  0  0  0  0  0
    3.9296    1.0312    0.0000 C   0  0  0  0  0  0  0  0  0  0  0  0
    4.6441    0.6187    0.0000 C   0  0  0  0  0  0  0  0  0  0  0  0
    1.7862    0.6187    0.0000 C   0  0  0  0  0  0  0  0  0  0  0  0
    1.7862   -0.2063    0.0000 C   0  0  0  0  0  0  0  0  0  0  0  0
    1.0717   -0.6188    0.0000 C   0  0  0  0  0  0  0  0  0  0  0  0
    0.3572   -0.2063    0.0000 C   0  0  0  0  0  0  0  0  0  0  0  0
   -0.3572   -0.6188    0.0000 N   0  0  0  0  0  0  0  0  0  0  0  0
   -0.3572   -1.4438    0.0000 C   0  0  0  0  0  0  0  0  0  0  0  0
   -1.0717   -1.8563    0.0000 C   0  0  0  0  0  0  0  0  0  0  0  0
   -1.7862   -1.4438    0.0000 N   0  0  0  0  0  0  0  0  0  0  0  0
   -2.5006   -1.8563    0.0000 C   0  0  0  0  0  0  0  0  0  0  0  0
   -3.2151   -1.4438    0.0000 C   0  0  0  0  0  0  0  0  0  0  0  0
   -3.9296   -1.8563    0.0000 C   0  0  0  0  0  0  0  0  0  0  0  0
   -4.6441   -1.4438    0.0000 C   0  0  0  0  0  0  0  0  0  0  0  0
   -4.6441   -0.6188    0.0000 C   0  0  0  0  0  0  0  0  0  0  0  0
   -3.9296   -0.2063    0.0000 C   0  0  0  0  0  0  0  0  0  0  0  0
   -3.2151   -0.6188    0.0000 C   0  0  0  0  0  0  0  0  0  0  0  0
   -1.7862   -0.6188    0.0000 C   0  0  0  0  0  0  0  0  0  0  0  0
   -1.0717   -0.2063    0.0000 C   0  0  0  0  0  0  0  0  0  0  0  0
    0.3572    0.6187    0.0000 C   0  0  0  0  0  0  0  0  0  0  0  0
   -0.3572    1.0313    0.0000 N   0  0  0  0  0  0  0  0  0  0  0  0
    1.0717    1.0313    0.0000 C   0  0  0  0  0  0  0  0  0  0  0  0
  1  2  2  0      
  2  3  1  0      
  3  4  1  0      
  4  5  1  0      
  2  6  1  0      
  6  7  2  0      
  7  8  1  0      
  8  9  2  0      
  9 10  1  0      
 10 11  1  0      
 11 12  1  0      
 12 13  1  0      
 13 14  1  0      
 14 15  1  0      
 15 16  2  0      
 16 17  1  0      
 17 18  2  0      
 18 19  1  0      
 19 20  2  0      
 15 20  1  0      
 13 21  1  0      
 21 22  1  0      
 10 22  1  0      
  9 23  1  0      
 23 24  1  0      
 23 25  2  0      
  6 25  1  0      
M  END

>  <RackCode>
HYCPK72335

>  <Cat. No.>
HY-122096

>  <Product Name>
DCLX069

>  <ROW>
M

>  <COLUMN>
6

>  <CAS No.>
792946-69-1

>  <MWt>
339.43

>  <Target>
Histone Methyltransferase

>  <Saltdate>


>  <Smiles>
O=C(C1=CC=C(C(N)=C1)N2CCN(CC2)CC3=CC=CC=C3)OCC

>  <Solvent>
DMSO Solution

>  <Batch No.>
126097

>  <Quantity>
10mM  * 50uL

>  <Pathway>
Epigenetics

>  <Synonyms>


>  <Formula>
C20H25N3O2

>  <Research_Area>
Cancer

>  <Clinical_Information>
No Development Reported

>  <SUPPLIER>
MedChemExpress

$$$$
Untitled Document
  ChemDraw09301612412D

 32 35  0  0  0  0  0  0  0  0999 V2000
   -0.3572    0.0000    0.0000 N   0  0  0  0  0  0  0  0  0  0  0  0
   -0.3572    0.8250    0.0000 C   0  0  0  0  0  0  0  0  0  0  0  0
    0.3572    1.2375    0.0000 C   0  0  0  0  0  0  0  0  0  0  0  0
    1.0717    0.8250    0.0000 C   0  0  0  0  0  0  0  0  0  0  0  0
    1.0717    0.0000    0.0000 C   0  0  0  0  0  0  0  0  0  0  0  0
    0.3572   -0.4125    0.0000 C   0  0  0  0  0  0  0  0  0  0  0  0
    1.7862    1.2375    0.0000 O   0  0  0  0  0  0  0  0  0  0  0  0
    1.7862   -0.4125    0.0000 C   0  0  0  0  0  0  0  0  0  0  0  0
    1.7862   -1.2375    0.0000 C   0  0  0  0  0  0  0  0  0  0  0  0
    2.5006   -1.6500    0.0000 C   0  0  0  0  0  0  0  0  0  0  0  0
    2.5006   -2.4750    0.0000 C   0  0  0  0  0  0  0  0  0  0  0  0
    1.7862   -2.8875    0.0000 C   0  0  0  0  0  0  0  0  0  0  0  0
    1.0717   -2.4750    0.0000 C   0  0  0  0  0  0  0  0  0  0  0  0
    1.0717   -1.6500    0.0000 C   0  0  0  0  0  0  0  0  0  0  0  0
    1.7862   -3.7125    0.0000 O   0  0  0  0  0  0  0  0  0  0  0  0
    3.2151   -2.8875    0.0000 Br  0  0  0  0  0  0  0  0  0  0  0  0
    0.3572    2.0625    0.0000 C   0  0  0  0  0  0  0  0  0  0  0  0
   -0.3572    2.4750    0.0000 C   0  0  0  0  0  0  0  0  0  0  0  0
   -1.0717    2.0625    0.0000 C   0  0  0  0  0  0  0  0  0  0  0  0
   -1.7862    2.4750    0.0000 C   0  0  0  0  0  0  0  0  0  0  0  0
   -1.7862    3.3000    0.0000 C   0  0  0  0  0  0  0  0  0  0  0  0
   -1.0717    3.7125    0.0000 C   0  0  0  0  0  0  0  0  0  0  0  0
   -0.3572    3.3000    0.0000 C   0  0  0  0  0  0  0  0  0  0  0  0
   -2.5006    3.7125    0.0000 O   0  0  0  0  0  0  0  0  0  0  0  0
   -2.5006    2.0625    0.0000 Br  0  0  0  0  0  0  0  0  0  0  0  0
   -1.0717   -0.4125    0.0000 C   0  0  0  0  0  0  0  0  0  0  0  0
   -1.7862    0.0000    0.0000 C   0  0  0  0  0  0  0  0  0  0  0  0
   -2.5006   -0.4125    0.0000 C   0  0  0  0  0  0  0  0  0  0  0  0
   -3.2151    0.0000    0.0000 C   0  0  0  0  0  0  0  0  0  0  0  0
   -3.2151    0.8250    0.0000 C   0  0  0  0  0  0  0  0  0  0  0  0
   -2.5006    1.2375    0.0000 C   0  0  0  0  0  0  0  0  0  0  0  0
   -1.7862    0.8250    0.0000 C   0  0  0  0  0  0  0  0  0  0  0  0
  1  2  1  0      
  2  3  1  0      
  3  4  1  0      
  4  5  1  0      
  5  6  1  0      
  1  6  1  0      
  4  7  2  0      
  8  9  1  0      
  9 10  1  0      
 10 11  2  0      
 11 12  1  0      
 12 13  2  0      
 13 14  1  0      
  9 14  2  0      
 12 15  1  0      
 11 16  1  0      
  5  8  2  0      
 17 18  1  0      
 18 19  1  0      
 19 20  2  0      
 20 21  1  0      
 21 22  2  0      
 22 23  1  0      
 18 23  2  0      
 21 24  1  0      
 20 25  1  0      
  3 17  2  0      
 26 27  1  0      
 27 28  1  0      
 28 29  2  0      
 29 30  1  0      
 30 31  2  0      
 31 32  1  0      
 27 32  2  0      
  1 26  1  0      
M  END

>  <RackCode>
HYCPK72335

>  <Cat. No.>
HY-12759

>  <Product Name>
CARM1-IN-1

>  <ROW>
N

>  <COLUMN>
6

>  <CAS No.>
1020399-49-8

>  <MWt>
555.26

>  <Target>
Histone Methyltransferase

>  <Saltdate>
Free Base

>  <Smiles>
O=C1/C(CN(CC2=CC=CC=C2)C/C1=C\C3=CC=C(O)C(Br)=C3)=C/C4=CC=C(O)C(Br)=C4

>  <Solvent>
DMSO Solution

>  <Batch No.>
16799

>  <Quantity>
10mM  * 50uL

>  <Pathway>
Epigenetics

>  <Synonyms>


>  <Formula>
C26H21Br2NO3

>  <Research_Area>
Cancer

>  <Clinical_Information>
No Development Reported

>  <SUPPLIER>
MedChemExpress

$$$$
Untitled Document
  ChemDraw03071908522D

 38 42  0  0  0  0  0  0  0  0999 V2000
    2.5006   -0.0835    0.0000 C   0  0  0  0  0  0  0  0  0  0  0  0
    2.5006   -0.9085    0.0000 C   0  0  0  0  0  0  0  0  0  0  0  0
    1.7862   -1.3210    0.0000 C   0  0  0  0  0  0  0  0  0  0  0  0
    1.0717   -0.9085    0.0000 C   0  0  0  0  0  0  0  0  0  0  0  0
    1.0717   -0.0835    0.0000 C   0  0  0  0  0  0  0  0  0  0  0  0
    1.7862    0.3290    0.0000 O   0  0  0  0  0  0  0  0  0  0  0  0
    0.3572    0.3290    0.0000 C   0  0  0  0  0  0  0  0  0  0  0  0
   -0.3572   -0.0835    0.0000 C   0  0  0  0  0  0  0  0  0  0  0  0
   -0.3572   -0.9085    0.0000 C   0  0  0  0  0  0  0  0  0  0  0  0
    0.3572   -1.3210    0.0000 C   0  0  0  0  0  0  0  0  0  0  0  0
    3.2151    0.3290    0.0000 O   0  0  0  0  0  0  0  0  0  0  0  0
    1.7862   -2.1460    0.0000 C   0  0  0  0  0  0  0  0  0  0  0  0
    2.5006   -2.5585    0.0000 C   0  0  0  0  0  0  0  0  0  0  0  0
    2.5006   -3.3835    0.0000 C   0  0  0  0  0  0  0  0  0  0  0  0
    1.7862   -3.7960    0.0000 C   0  0  0  0  0  0  0  0  0  0  0  0
    1.0717   -3.3835    0.0000 C   0  0  0  0  0  0  0  0  0  0  0  0
    1.0717   -2.5585    0.0000 C   0  0  0  0  0  0  0  0  0  0  0  0
    0.3572    1.1540    0.0000 C   0  0  0  0  0  0  0  0  0  0  0  0
    1.0717    1.5665    0.0000 C   0  0  0  0  0  0  0  0  0  0  0  0
    1.0717    2.3915    0.0000 C   0  0  0  0  0  0  0  0  0  0  0  0
    1.7862    2.8040    0.0000 N   0  0  0  0  0  0  0  0  0  0  0  0
    1.8724    3.6245    0.0000 C   0  0  0  0  0  0  0  0  0  0  0  0
    2.6794    3.7960    0.0000 C   0  0  0  0  0  0  0  0  0  0  0  0
    3.0919    3.0815    0.0000 C   0  0  0  0  0  0  0  0  0  0  0  0
    2.5399    2.4684    0.0000 C   0  0  0  0  0  0  0  0  0  0  0  0
    0.3572    2.8040    0.0000 O   0  0  0  0  0  0  0  0  0  0  0  0
   -0.3572    1.5665    0.0000 C   0  0  0  0  0  0  0  0  0  0  0  0
   -1.0717    1.1540    0.0000 C   0  0  0  0  0  0  0  0  0  0  0  0
   -1.7862    1.5665    0.0000 C   0  0  0  0  0  0  0  0  0  0  0  0
   -1.7862    2.3915    0.0000 C   0  0  0  0  0  0  0  0  0  0  0  0
   -1.0717    2.8040    0.0000 C   0  0  0  0  0  0  0  0  0  0  0  0
   -0.3572    2.3915    0.0000 C   0  0  0  0  0  0  0  0  0  0  0  0
   -2.5006    2.8040    0.0000 O   0  0  0  0  0  0  0  0  0  0  0  0
   -3.2151    2.3915    0.0000 C   0  0  0  0  0  0  0  0  0  0  0  0
   -1.0717    0.3290    0.0000 O   0  0  0  0  0  0  0  0  0  0  0  0
   -1.7862   -0.0835    0.0000 C   0  0  0  0  0  0  0  0  0  0  0  0
    0.3572   -2.1460    0.0000 O   0  0  0  0  0  0  0  0  0  0  0  0
   -0.3572   -2.5585    0.0000 C   0  0  0  0  0  0  0  0  0  0  0  0
  1  2  1  0      
  2  3  2  0      
  3  4  1  0      
  4  5  1  0      
  5  6  1  0      
  1  6  1  0      
  7  8  1  0      
  8  9  2  0      
  9 10  1  0      
  4 10  2  0      
  5  7  2  0      
  1 11  2  0      
 12 13  1  0      
 13 14  2  0      
 14 15  1  0      
 15 16  2  0      
 16 17  1  0      
 12 17  2  0      
  3 12  1  0      
 18 19  1  0      
 19 20  1  0      
 21 22  1  0      
 22 23  1  0      
 23 24  1  0      
 24 25  1  0      
 21 25  1  0      
 20 21  1  0      
 20 26  2  0      
 27 28  1  0      
 28 29  2  0      
 29 30  1  0      
 30 31  2  0      
 31 32  1  0      
 27 32  2  0      
 33 34  1  0      
 30 33  1  0      
 18 27  1  0      
  7 18  1  0      
 35 36  1  0      
  8 35  1  0      
 37 38  1  0      
 10 37  1  0      
M  END

>  <RackCode>
HYCPK72335

>  <Cat. No.>
HY-124828

>  <Product Name>
CMLD-2

>  <ROW>
O

>  <COLUMN>
6

>  <CAS No.>
958843-91-9

>  <MWt>
513.58

>  <Target>
HuR

>  <Saltdate>


>  <Smiles>
O=C1C=C(C2=CC=CC=C2)C3=C(OC)C=C(OC)C(C(C4=CC=C(OC)C=C4)CC(N5CCCC5)=O)=C3O1

>  <Solvent>
DMSO Solution

>  <Batch No.>
272894

>  <Quantity>
10mM  * 50uL

>  <Pathway>
Epigenetics

>  <Synonyms>


>  <Formula>
C31H31NO6

>  <Research_Area>
Cancer

>  <Clinical_Information>
No Development Reported

>  <SUPPLIER>
MedChemExpress

$$$$
Untitled Document
  ChemDraw08062110522D

 36 39  0  0  0  0  0  0  0  0999 V2000
   -0.4099    2.0966    0.0000 O   0  0  0  0  0  0  0  0  0  0  0  0
   -1.1244    1.6841    0.0000 C   0  0  0  0  0  0  0  0  0  0  0  0
   -1.8388    2.0966    0.0000 C   0  0  0  0  0  0  0  0  0  0  0  0
   -1.1244    0.8591    0.0000 O   0  0  0  0  0  0  0  0  0  0  0  0
    0.3046    1.6841    0.0000 C   0  0  0  0  0  0  0  0  0  0  0  0
    0.3908    0.8636    0.0000 C   0  0  0  0  0  0  0  0  0  0  0  0
    1.1978    0.6920    0.0000 O   0  0  0  0  0  0  0  0  0  0  0  0
    1.6103    1.4065    0.0000 C   0  0  0  0  0  0  0  0  0  0  0  0
    2.4308    1.4927    0.0000 C   0  0  0  0  0  0  0  0  0  0  0  0
    2.9157    0.8253    0.0000 O   0  0  0  0  0  0  0  0  0  0  0  0
    3.7362    0.9115    0.0000 C   0  0  0  0  0  0  0  0  0  0  0  0
    4.2211    0.2441    0.0000 C   0  0  0  0  0  0  0  0  0  0  0  0
    4.0717    1.6652    0.0000 O   0  0  0  0  0  0  0  0  0  0  0  0
    1.0583    2.0196    0.0000 C   0  0  0  0  0  0  0  0  0  0  0  0
    1.2298    2.8266    0.0000 O   0  0  0  0  0  0  0  0  0  0  0  0
    2.0144    3.0815    0.0000 C   0  0  0  0  0  0  0  0  0  0  0  0
    2.6275    2.5295    0.0000 C   0  0  0  0  0  0  0  0  0  0  0  0
    2.1859    3.8885    0.0000 O   0  0  0  0  0  0  0  0  0  0  0  0
    0.1359    0.0789    0.0000 N   0  0  0  0  0  0  0  0  0  0  0  0
   -0.6487   -0.1760    0.0000 C   0  0  0  0  0  0  0  0  0  0  0  0
   -0.6487   -1.0010    0.0000 C   0  0  0  0  0  0  0  0  0  0  0  0
    0.1359   -1.2559    0.0000 N   0  0  0  0  0  0  0  0  0  0  0  0
    0.6208   -0.5885    0.0000 C   0  0  0  0  0  0  0  0  0  0  0  0
   -1.3632   -1.4135    0.0000 C   0  0  0  0  0  0  0  0  0  0  0  0
   -1.3632   -2.2385    0.0000 N   0  0  0  0  0  0  0  0  0  0  0  0
   -2.0777   -2.6510    0.0000 C   0  0  0  0  0  0  0  0  0  0  0  0
   -2.7922   -2.2385    0.0000 C   0  0  0  0  0  0  0  0  0  0  0  0
   -3.5066   -2.6510    0.0000 C   0  0  0  0  0  0  0  0  0  0  0  0
   -4.2211   -2.2385    0.0000 O   0  0  0  0  0  0  0  0  0  0  0  0
   -3.5066   -3.4760    0.0000 C   0  0  0  0  0  0  0  0  0  0  0  0
   -2.7922   -3.8885    0.0000 C   0  0  0  0  0  0  0  0  0  0  0  0
   -2.0777   -3.4760    0.0000 C   0  0  0  0  0  0  0  0  0  0  0  0
   -2.0777   -1.0010    0.0000 N   0  0  0  0  0  0  0  0  0  0  0  0
   -2.0777   -0.1760    0.0000 C   0  0  0  0  0  0  0  0  0  0  0  0
   -1.3632    0.2365    0.0000 N   0  0  0  0  0  0  0  0  0  0  0  0
   -0.4162    0.6920    0.0000 H   0  0  0  0  0  0  0  0  0  0  0  0
  1  2  1  0      
  2  3  1  0      
  2  4  2  0      
  5  1  1  6      
  5  6  1  0      
  6  7  1  0      
  7  8  1  0      
  8  9  1  1      
  9 10  1  0      
 10 11  1  0      
 11 12  1  0      
 11 13  2  0      
  8 14  1  0      
  5 14  1  0      
 14 15  1  6      
 15 16  1  0      
 16 17  1  0      
 16 18  2  0      
  6 19  1  1      
 19 20  1  0      
 20 21  1  0      
 21 22  1  0      
 22 23  2  0      
 19 23  1  0      
 21 24  2  0      
 24 25  1  0      
 25 26  1  0      
 26 27  2  0      
 27 28  1  0      
 28 29  1  0      
 28 30  2  0      
 30 31  1  0      
 31 32  2  0      
 26 32  1  0      
 24 33  1  0      
 33 34  2  0      
 34 35  1  0      
 20 35  2  0      
  6 36  1  6      
M  END

>  <RackCode>
HYCPK72335

>  <Cat. No.>
HY-141645

>  <Product Name>
IMM-H007

>  <ROW>
P

>  <COLUMN>
6

>  <CAS No.>
1221412-23-2

>  <MWt>
485.45

>  <Target>
AMPK; AP-1; JNK; NF-¦ÊB; TGF-¦Â Receptor

>  <Saltdate>


>  <Smiles>
CC(O[C@H]1[C@@](N2C3=NC=NC(NC4=CC(O)=CC=C4)=C3N=C2)([H])O[C@@H]([C@H]1OC(C)=O)COC(C)=O)=O

>  <Solvent>
DMSO Solution

>  <Batch No.>
268179

>  <Quantity>
10mM  * 50uL

>  <Pathway>
Epigenetics; Immunology/Inflammation; MAPK/ERK Pathway; NF-¦ÊB; PI3K/Akt/mTOR; TGF-beta/Smad

>  <Synonyms>
WS070117

>  <Formula>
C22H23N5O8

>  <Research_Area>
Metabolic Disease; Inflammation/Immunology; Cardiovascular Disease

>  <Clinical_Information>
No Development Reported

>  <SUPPLIER>
MedChemExpress

$$$$
Untitled Document
  ChemDraw07042314562D

 42 48  0  0  0  0  0  0  0  0999 V2000
   -5.2652   -2.0459    0.0000 O   0  0  0  0  0  0  0  0  0  0  0  0
   -4.7131   -1.4328    0.0000 C   0  0  0  0  0  0  0  0  0  0  0  0
   -4.9681   -0.6482    0.0000 C   0  0  0  0  0  0  0  0  0  0  0  0
   -4.4160   -0.0351    0.0000 C   0  0  0  0  0  0  0  0  0  0  0  0
   -3.6091   -0.2066    0.0000 O   0  0  0  0  0  0  0  0  0  0  0  0
   -3.3541   -0.9912    0.0000 C   0  0  0  0  0  0  0  0  0  0  0  0
   -3.9062   -1.6043    0.0000 C   0  0  0  0  0  0  0  0  0  0  0  0
   -3.4937   -2.3188    0.0000 S   0  0  0  0  0  0  0  0  0  0  0  0
   -2.6867   -2.1473    0.0000 C   0  0  0  0  0  0  0  0  0  0  0  0
   -2.6005   -1.3268    0.0000 C   0  0  0  0  0  0  0  0  0  0  0  0
   -1.8860   -0.9143    0.0000 C   0  0  0  0  0  0  0  0  0  0  0  0
   -1.8860   -0.0893    0.0000 C   0  0  0  0  0  0  0  0  0  0  0  0
   -1.1715    0.3232    0.0000 C   0  0  0  0  0  0  0  0  0  0  0  0
   -0.4570   -0.0893    0.0000 C   0  0  0  0  0  0  0  0  0  0  0  0
   -0.4570   -0.9143    0.0000 C   0  0  0  0  0  0  0  0  0  0  0  0
   -1.1715   -1.3268    0.0000 C   0  0  0  0  0  0  0  0  0  0  0  0
    0.2574    0.3232    0.0000 N   0  0  0  0  0  0  0  0  0  0  0  0
    0.9719   -0.0893    0.0000 C   0  0  0  0  0  0  0  0  0  0  0  0
    0.9719   -0.9143    0.0000 N   0  0  0  0  0  0  0  0  0  0  0  0
    1.6864   -1.3268    0.0000 C   0  0  0  0  0  0  0  0  0  0  0  0
    2.4008   -0.9143    0.0000 C   0  0  0  0  0  0  0  0  0  0  0  0
    3.1855   -1.1692    0.0000 C   0  0  0  0  0  0  0  0  0  0  0  0
    3.6704   -0.5018    0.0000 C   0  0  0  0  0  0  0  0  0  0  0  0
    4.4954   -0.5018    0.0000 C   0  0  0  0  0  0  0  0  0  0  0  0
    4.9079    0.2127    0.0000 O   0  0  0  0  0  0  0  0  0  0  0  0
    4.9079   -1.2163    0.0000 N   0  0  0  0  0  0  0  0  0  0  0  0
    4.4954   -1.9307    0.0000 C   0  0  0  0  0  0  0  0  0  0  0  0
    5.7329   -1.2163    0.0000 C   0  0  0  0  0  0  0  0  0  0  0  0
    3.1855    0.1657    0.0000 N   0  0  0  0  0  0  0  0  0  0  0  0
    2.4008   -0.0893    0.0000 C   0  0  0  0  0  0  0  0  0  0  0  0
    1.6864    0.3232    0.0000 N   0  0  0  0  0  0  0  0  0  0  0  0
    3.4404    0.9503    0.0000 C   0  0  0  0  0  0  0  0  0  0  0  0
    2.9555    1.6177    0.0000 C   0  0  0  0  0  0  0  0  0  0  0  0
    3.4404    2.2852    0.0000 C   0  0  0  0  0  0  0  0  0  0  0  0
    4.2250    2.0302    0.0000 C   0  0  0  0  0  0  0  0  0  0  0  0
    4.2250    1.2052    0.0000 C   0  0  0  0  0  0  0  0  0  0  0  0
   -4.6710    0.7495    0.0000 N   0  0  0  0  0  0  0  0  0  0  0  0
   -5.4779    0.9211    0.0000 C   0  0  0  0  0  0  0  0  0  0  0  0
   -5.7329    1.7057    0.0000 C   0  0  0  0  0  0  0  0  0  0  0  0
   -5.1809    2.3188    0.0000 O   0  0  0  0  0  0  0  0  0  0  0  0
   -4.3739    2.1473    0.0000 C   0  0  0  0  0  0  0  0  0  0  0  0
   -4.1189    1.3626    0.0000 C   0  0  0  0  0  0  0  0  0  0  0  0
  1  2  2  0      
  2  3  1  0      
  3  4  2  0      
  4  5  1  0      
  5  6  1  0      
  6  7  2  0      
  2  7  1  0      
  7  8  1  0      
  8  9  1  0      
  9 10  2  0      
  6 10  1  0      
 10 11  1  0      
 11 12  1  0      
 12 13  2  0      
 13 14  1  0      
 14 15  2  0      
 15 16  1  0      
 11 16  2  0      
 14 17  1  0      
 17 18  1  0      
 18 19  1  0      
 19 20  2  0      
 20 21  1  0      
 21 22  1  0      
 22 23  2  0      
 23 24  1  0      
 24 25  2  0      
 24 26  1  0      
 26 27  1  0      
 26 28  1  0      
 23 29  1  0      
 29 30  1  0      
 21 30  2  0      
 30 31  1  0      
 18 31  2  0      
 29 32  1  0      
 32 33  1  0      
 33 34  1  0      
 34 35  1  0      
 35 36  1  0      
 32 36  1  0      
  4 37  1  0      
 37 38  1  0      
 38 39  1  0      
 39 40  1  0      
 40 41  1  0      
 41 42  1  0      
 37 42  1  0      
M  END

>  <RackCode>
HYCPK72335

>  <Cat. No.>
HY-153894

>  <Product Name>
SRX3177

>  <ROW>
A

>  <COLUMN>
7

>  <CAS No.>
2241237-51-2

>  <MWt>
584.69

>  <Target>
CDK; Epigenetic Reader Domain; PI3K

>  <Saltdate>


>  <Smiles>
O=C1C=C(N2CCOCC2)OC3=C1SC=C3C4=CC=C(NC5=NC6=C(C=C(N6C7CCCC7)C(N(C)C)=O)C=N5)C=C4

>  <Solvent>
DMSO Solution

>  <Batch No.>
279043

>  <Quantity>
10mM  * 50uL

>  <Pathway>
Cell Cycle/DNA Damage; Epigenetics; PI3K/Akt/mTOR

>  <Synonyms>


>  <Formula>
C31H32N6O4S

>  <Research_Area>
Cancer

>  <Clinical_Information>
No Development Reported

>  <SUPPLIER>
MedChemExpress

$$$$
Untitled Document
  ChemDraw11172012342D

 35 40  0  0  0  0  0  0  0  0999 V2000
   -2.0393   -0.7684    0.0000 C   0  0  0  0  0  0  0  0  0  0  0  0
   -2.0393   -1.5934    0.0000 O   0  0  0  0  0  0  0  0  0  0  0  0
    1.3737    0.0566    0.0000 C   0  0  0  0  0  0  0  0  0  0  0  0
    0.8888   -0.6109    0.0000 N   0  0  0  0  0  0  0  0  0  0  0  0
    0.1041   -0.3559    0.0000 C   0  0  0  0  0  0  0  0  0  0  0  0
    0.1041    0.4691    0.0000 C   0  0  0  0  0  0  0  0  0  0  0  0
    0.8888    0.7240    0.0000 N   0  0  0  0  0  0  0  0  0  0  0  0
   -0.6103   -0.7684    0.0000 C   0  0  0  0  0  0  0  0  0  0  0  0
   -1.3248   -0.3559    0.0000 C   0  0  0  0  0  0  0  0  0  0  0  0
   -1.3248    0.4691    0.0000 C   0  0  0  0  0  0  0  0  0  0  0  0
   -0.6103    0.8816    0.0000 C   0  0  0  0  0  0  0  0  0  0  0  0
    1.1437    1.5086    0.0000 C   0  0  0  0  0  0  0  0  0  0  0  0
   -0.6103    1.7066    0.0000 O   0  0  0  0  0  0  0  0  0  0  0  0
   -1.3248    2.1191    0.0000 C   0  0  0  0  0  0  0  0  0  0  0  0
    3.4682   -0.3559    0.0000 C   0  0  0  0  0  0  0  0  0  0  0  0
    3.4682    0.4691    0.0000 C   0  0  0  0  0  0  0  0  0  0  0  0
    4.1827    0.8816    0.0000 C   0  0  0  0  0  0  0  0  0  0  0  0
    4.8972    0.4691    0.0000 C   0  0  0  0  0  0  0  0  0  0  0  0
    4.8972   -0.3559    0.0000 C   0  0  0  0  0  0  0  0  0  0  0  0
    4.1827   -0.7684    0.0000 N   0  0  0  0  0  0  0  0  0  0  0  0
    2.6836   -0.6109    0.0000 N   0  0  0  0  0  0  0  0  0  0  0  0
    2.6836    0.7240    0.0000 C   0  0  0  0  0  0  0  0  0  0  0  0
    2.1987    0.0566    0.0000 C   0  0  0  0  0  0  0  0  0  0  0  0
    2.4287   -1.3955    0.0000 C   0  0  0  0  0  0  0  0  0  0  0  0
    1.6217   -1.5670    0.0000 C   0  0  0  0  0  0  0  0  0  0  0  0
    1.0086   -2.1191    0.0000 C   0  0  0  0  0  0  0  0  0  0  0  0
    0.8371   -1.3121    0.0000 C   0  0  0  0  0  0  0  0  0  0  0  0
   -2.7538   -0.3559    0.0000 N   0  0  0  0  0  0  0  0  0  0  0  0
   -2.7538    0.4691    0.0000 C   0  0  0  0  0  0  0  0  0  0  0  0
   -3.4682    0.8816    0.0000 C   0  0  0  0  0  0  0  0  0  0  0  0
   -4.1827    0.4691    0.0000 C   0  0  0  0  0  0  0  0  0  0  0  0
   -4.1827   -0.3559    0.0000 C   0  0  0  0  0  0  0  0  0  0  0  0
   -3.4682   -0.7684    0.0000 C   0  0  0  0  0  0  0  0  0  0  0  0
   -2.0393    0.8816    0.0000 C   0  0  0  0  0  0  0  0  0  0  0  0
   -4.8972   -0.7684    0.0000 N   0  0  0  0  0  0  0  0  0  0  0  0
  1  2  2  0      
  3  4  2  0      
  4  5  1  0      
  5  6  1  0      
  6  7  1  0      
  3  7  1  0      
  8  9  1  0      
  9 10  2  0      
 10 11  1  0      
 11  6  2  0      
  8  5  2  0      
  7 12  1  0      
 13 14  1  0      
 11 13  1  0      
 15 16  1  0      
 16 17  2  0      
 17 18  1  0      
 18 19  2  0      
 19 20  1  0      
 15 20  2  0      
 22 23  2  0      
 21 23  1  0      
 21 15  1  0      
 22 16  1  0      
 25 26  1  0      
 26 27  1  0      
 25 27  1  0      
 24 25  1  0      
 21 24  1  0      
  3 23  1  0      
  1  9  1  0      
 28 29  1  0      
 29 30  1  0      
 30 31  1  0      
 31 32  1  0      
 32 33  1  0      
 28 33  1  0      
 29 34  1  6      
 32 35  1  6      
  1 28  1  0      
M  END

>  <RackCode>
HYCPK72335

>  <Cat. No.>
HY-137655A

>  <Product Name>
BMS-P5 (free base)

>  <ROW>
B

>  <COLUMN>
7

>  <CAS No.>
1550371-22-6

>  <MWt>
472.58

>  <Target>
Protein Arginine Deiminase

>  <Saltdate>


>  <Smiles>
O=C(N1[C@@H](C)CC[C@@H](N)C1)C2=CC(OC)=C3C(N=C(C4=CC5=CC=CN=C5N4CC6CC6)N3C)=C2

>  <Solvent>
DMSO Solution

>  <Batch No.>
153401

>  <Quantity>
10mM  * 50uL

>  <Pathway>
Epigenetics

>  <Synonyms>


>  <Formula>
C27H32N6O2

>  <Research_Area>
Cancer

>  <Clinical_Information>
No Development Reported

>  <SUPPLIER>
MedChemExpress

$$$$
Untitled Document
  ChemDraw10311814472D

 29 31  0  0  0  0  0  0  0  0999 V2000
   -5.3585    1.0313    0.0000 C   0  0  0  0  0  0  0  0  0  0  0  0
   -4.6441    0.6187    0.0000 C   0  0  0  0  0  0  0  0  0  0  0  0
   -3.9296    1.0313    0.0000 C   0  0  0  0  0  0  0  0  0  0  0  0
   -3.2151    0.6187    0.0000 C   0  0  0  0  0  0  0  0  0  0  0  0
   -2.5006    1.0313    0.0000 O   0  0  0  0  0  0  0  0  0  0  0  0
   -1.7862    0.6187    0.0000 C   0  0  0  0  0  0  0  0  0  0  0  0
   -1.0717    1.0313    0.0000 C   0  0  0  0  0  0  0  0  0  0  0  0
   -0.3572    0.6187    0.0000 N   0  0  0  0  0  0  0  0  0  0  0  0
    0.3572    1.0313    0.0000 C   0  0  0  0  0  0  0  0  0  0  0  0
    1.0717    0.6187    0.0000 C   0  0  0  0  0  0  0  0  0  0  0  0
    1.0717   -0.2063    0.0000 N   0  0  0  0  0  0  0  0  0  0  0  0
    1.7862   -0.6188    0.0000 C   0  0  0  0  0  0  0  0  0  0  0  0
    2.5006   -0.2063    0.0000 C   0  0  0  0  0  0  0  0  0  0  0  0
    2.5006    0.6187    0.0000 C   0  0  0  0  0  0  0  0  0  0  0  0
    3.2151    1.0313    0.0000 C   0  0  0  0  0  0  0  0  0  0  0  0
    3.9296    0.6187    0.0000 C   0  0  0  0  0  0  0  0  0  0  0  0
    3.9296   -0.2063    0.0000 C   0  0  0  0  0  0  0  0  0  0  0  0
    4.6441   -0.6188    0.0000 O   0  0  0  0  0  0  0  0  0  0  0  0
    5.3585   -0.2063    0.0000 C   0  0  0  0  0  0  0  0  0  0  0  0
    3.2151   -0.6188    0.0000 C   0  0  0  0  0  0  0  0  0  0  0  0
    3.2151   -1.4438    0.0000 O   0  0  0  0  0  0  0  0  0  0  0  0
    3.9296   -1.8563    0.0000 C   0  0  0  0  0  0  0  0  0  0  0  0
    1.7862   -1.4438    0.0000 O   0  0  0  0  0  0  0  0  0  0  0  0
    0.3572   -0.6188    0.0000 C   0  0  0  0  0  0  0  0  0  0  0  0
   -0.3572   -0.2063    0.0000 C   0  0  0  0  0  0  0  0  0  0  0  0
   -1.0717    1.8563    0.0000 O   0  0  0  0  0  0  0  0  0  0  0  0
   -3.2151   -0.2063    0.0000 C   0  0  0  0  0  0  0  0  0  0  0  0
   -3.9296   -0.6188    0.0000 C   0  0  0  0  0  0  0  0  0  0  0  0
   -4.6441   -0.2063    0.0000 C   0  0  0  0  0  0  0  0  0  0  0  0
  1  2  1  0      
  2  3  2  0      
  3  4  1  0      
  4  5  1  0      
  5  6  1  0      
  6  7  1  0      
  7  8  1  0      
  8  9  1  0      
  9 10  1  0      
 10 11  1  0      
 11 12  1  0      
 12 13  1  0      
 13 14  2  0      
 14 15  1  0      
 15 16  2  0      
 16 17  1  0      
 17 18  1  0      
 18 19  1  0      
 17 20  2  0      
 13 20  1  0      
 20 21  1  0      
 21 22  1  0      
 12 23  2  0      
 11 24  1  0      
 24 25  1  0      
  8 25  1  0      
  7 26  2  0      
  4 27  2  0      
 27 28  1  0      
 28 29  2  0      
  2 29  1  0      
M  END

>  <RackCode>
HYCPK72335

>  <Cat. No.>
HY-119344

>  <Product Name>
MS37452

>  <ROW>
C

>  <COLUMN>
7

>  <CAS No.>
423748-02-1

>  <MWt>
398.45

>  <Target>
Histone Methyltransferase

>  <Saltdate>


>  <Smiles>
CC1=CC(OCC(N2CCN(CC2)C(C3=CC=CC(OC)=C3OC)=O)=O)=CC=C1

>  <Solvent>
DMSO Solution

>  <Batch No.>
128123

>  <Quantity>
10mM  * 50uL

>  <Pathway>
Epigenetics

>  <Synonyms>


>  <Formula>
C22H26N2O5

>  <Research_Area>
Cancer

>  <Clinical_Information>
No Development Reported

>  <SUPPLIER>
MedChemExpress

$$$$
Untitled Document
  ChemDraw07222213132D

 27 30  0  0  0  0  0  0  0  0999 V2000
    1.1120    1.3606    0.0000 N   0  0  0  0  0  0  0  0  0  0  0  0
    1.5245    0.6461    0.0000 N   0  0  0  0  0  0  0  0  0  0  0  0
    0.9725    0.0330    0.0000 C   0  0  0  0  0  0  0  0  0  0  0  0
    0.2188    0.3686    0.0000 N   0  0  0  0  0  0  0  0  0  0  0  0
    0.3050    1.1891    0.0000 C   0  0  0  0  0  0  0  0  0  0  0  0
   -0.3081    1.7411    0.0000 S   0  0  0  0  0  0  0  0  0  0  0  0
   -1.0927    1.4862    0.0000 C   0  0  0  0  0  0  0  0  0  0  0  0
   -1.6760    2.0695    0.0000 C   0  0  0  0  0  0  0  0  0  0  0  0
   -2.4729    1.8560    0.0000 C   0  0  0  0  0  0  0  0  0  0  0  0
   -3.0563    2.4394    0.0000 C   0  0  0  0  0  0  0  0  0  0  0  0
   -2.8428    3.2363    0.0000 C   0  0  0  0  0  0  0  0  0  0  0  0
   -2.0459    3.4498    0.0000 C   0  0  0  0  0  0  0  0  0  0  0  0
   -1.4625    2.8664    0.0000 C   0  0  0  0  0  0  0  0  0  0  0  0
   -0.4957   -0.0439    0.0000 C   0  0  0  0  0  0  0  0  0  0  0  0
   -0.4957   -0.8689    0.0000 C   0  0  0  0  0  0  0  0  0  0  0  0
   -1.2101   -1.2814    0.0000 C   0  0  0  0  0  0  0  0  0  0  0  0
   -1.9246   -0.8689    0.0000 C   0  0  0  0  0  0  0  0  0  0  0  0
   -1.9246   -0.0439    0.0000 C   0  0  0  0  0  0  0  0  0  0  0  0
   -1.2101    0.3686    0.0000 C   0  0  0  0  0  0  0  0  0  0  0  0
    1.1440   -0.7739    0.0000 C   0  0  0  0  0  0  0  0  0  0  0  0
    1.9286   -1.0289    0.0000 O   0  0  0  0  0  0  0  0  0  0  0  0
    2.1001   -1.8358    0.0000 C   0  0  0  0  0  0  0  0  0  0  0  0
    2.8848   -2.0908    0.0000 C   0  0  0  0  0  0  0  0  0  0  0  0
    3.0563   -2.8978    0.0000 C   0  0  0  0  0  0  0  0  0  0  0  0
    2.4432   -3.4498    0.0000 C   0  0  0  0  0  0  0  0  0  0  0  0
    1.6586   -3.1948    0.0000 C   0  0  0  0  0  0  0  0  0  0  0  0
    1.4871   -2.3879    0.0000 C   0  0  0  0  0  0  0  0  0  0  0  0
  1  2  1  0      
  2  3  2  0      
  3  4  1  0      
  4  5  1  0      
  1  5  2  0      
  8  9  1  0      
  9 10  2  0      
 10 11  1  0      
 11 12  2  0      
 12 13  1  0      
  8 13  2  0      
  7  8  1  0      
  6  7  1  0      
  5  6  1  0      
 14 15  1  0      
 15 16  2  0      
 16 17  1  0      
 17 18  2  0      
 18 19  1  0      
 14 19  2  0      
  4 14  1  0      
 22 23  1  0      
 23 24  2  0      
 24 25  1  0      
 25 26  2  0      
 26 27  1  0      
 22 27  2  0      
 21 22  1  0      
 20 21  1  0      
  3 20  1  0      
M  END

>  <RackCode>
HYCPK72335

>  <Cat. No.>
HY-147233

>  <Product Name>
MIND4-19

>  <ROW>
D

>  <COLUMN>
7

>  <CAS No.>
129544-85-0

>  <MWt>
373.47

>  <Target>
Sirtuin

>  <Saltdate>


>  <Smiles>
C1(COC2=CC=CC=C2)=NN=C(SCC3=CC=CC=C3)N1C4=CC=CC=C4

>  <Solvent>
DMSO Solution

>  <Batch No.>
178402

>  <Quantity>
10mM  * 50uL

>  <Pathway>
Cell Cycle/DNA Damage; Epigenetics

>  <Synonyms>


>  <Formula>
C22H19N3OS

>  <Research_Area>
Neurological Disease

>  <Clinical_Information>
No Development Reported

>  <SUPPLIER>
MedChemExpress

$$$$
Untitled Document
  ChemDraw02172317022D

 48 52  0  0  0  0  0  0  0  0999 V2000
    0.1541    1.7977    0.0000 C   0  0  0  0  0  0  0  0  0  0  0  0
   -0.1008    1.0131    0.0000 N   0  0  0  0  0  0  0  0  0  0  0  0
   -0.8854    0.7582    0.0000 C   0  0  0  0  0  0  0  0  0  0  0  0
   -1.5999    1.1707    0.0000 C   0  0  0  0  0  0  0  0  0  0  0  0
   -2.3144    0.7582    0.0000 C   0  0  0  0  0  0  0  0  0  0  0  0
   -2.3144   -0.0668    0.0000 C   0  0  0  0  0  0  0  0  0  0  0  0
   -3.0289   -0.4793    0.0000 C   0  0  0  0  0  0  0  0  0  0  0  0
   -3.0289   -1.3043    0.0000 O   0  0  0  0  0  0  0  0  0  0  0  0
   -3.7433   -0.0668    0.0000 N   0  0  0  0  0  0  0  0  0  0  0  0
   -4.4578   -0.4793    0.0000 C   0  0  0  0  0  0  0  0  0  0  0  0
   -5.1723   -0.0668    0.0000 C   0  0  0  0  0  0  0  0  0  0  0  0
   -5.8867   -0.4793    0.0000 C   0  0  0  0  0  0  0  0  0  0  0  0
   -6.6012   -0.0668    0.0000 C   0  0  0  0  0  0  0  0  0  0  0  0
   -7.3157   -0.4793    0.0000 C   0  0  0  0  0  0  0  0  0  0  0  0
   -8.0302   -0.0668    0.0000 O   0  0  0  0  0  0  0  0  0  0  0  0
   -8.7446   -0.4793    0.0000 C   0  0  0  0  0  0  0  0  0  0  0  0
   -9.4591   -0.0668    0.0000 C   0  0  0  0  0  0  0  0  0  0  0  0
   -8.7446   -1.3043    0.0000 C   0  0  0  0  0  0  0  0  0  0  0  0
   -9.4591   -0.8918    0.0000 C   0  0  0  0  0  0  0  0  0  0  0  0
   -5.8867   -1.3043    0.0000 C   0  0  0  0  0  0  0  0  0  0  0  0
   -5.1723   -1.7168    0.0000 C   0  0  0  0  0  0  0  0  0  0  0  0
   -4.4578   -1.3043    0.0000 C   0  0  0  0  0  0  0  0  0  0  0  0
   -1.5999   -0.4793    0.0000 C   0  0  0  0  0  0  0  0  0  0  0  0
   -0.8854   -0.0668    0.0000 C   0  0  0  0  0  0  0  0  0  0  0  0
   -0.1008   -0.3218    0.0000 N   0  0  0  0  0  0  0  0  0  0  0  0
    0.3841    0.3457    0.0000 C   0  0  0  0  0  0  0  0  0  0  0  0
    1.2091    0.3457    0.0000 C   0  0  0  0  0  0  0  0  0  0  0  0
    1.6216    1.0601    0.0000 C   0  0  0  0  0  0  0  0  0  0  0  0
    2.4466    1.0601    0.0000 C   0  0  0  0  0  0  0  0  0  0  0  0
    2.8591    0.3457    0.0000 C   0  0  0  0  0  0  0  0  0  0  0  0
    3.6841    0.3457    0.0000 C   0  0  0  0  0  0  0  0  0  0  0  0
    4.0966   -0.3688    0.0000 O   0  0  0  0  0  0  0  0  0  0  0  0
    4.0966    1.0601    0.0000 N   0  0  0  0  0  0  0  0  0  0  0  0
    4.9216    1.0601    0.0000 C   0  0  0  0  0  0  0  0  0  0  0  0
    5.3341    0.3457    0.0000 C   0  0  0  0  0  0  0  0  0  0  0  0
    6.1591    0.3457    0.0000 C   0  0  0  0  0  0  0  0  0  0  0  0
    6.5716   -0.3688    0.0000 C   0  0  0  0  0  0  0  0  0  0  0  0
    7.3966   -0.3688    0.0000 C   0  0  0  0  0  0  0  0  0  0  0  0
    7.8091   -1.0833    0.0000 O   0  0  0  0  0  0  0  0  0  0  0  0
    8.6341   -1.0833    0.0000 C   0  0  0  0  0  0  0  0  0  0  0  0
    9.0466   -1.7977    0.0000 C   0  0  0  0  0  0  0  0  0  0  0  0
    9.4591   -1.0833    0.0000 C   0  0  0  0  0  0  0  0  0  0  0  0
    9.0466   -0.3688    0.0000 C   0  0  0  0  0  0  0  0  0  0  0  0
    6.5716    1.0601    0.0000 C   0  0  0  0  0  0  0  0  0  0  0  0
    6.1591    1.7746    0.0000 C   0  0  0  0  0  0  0  0  0  0  0  0
    5.3341    1.7746    0.0000 C   0  0  0  0  0  0  0  0  0  0  0  0
    2.4466   -0.3688    0.0000 C   0  0  0  0  0  0  0  0  0  0  0  0
    1.6216   -0.3688    0.0000 C   0  0  0  0  0  0  0  0  0  0  0  0
  1  2  1  0      
  2  3  1  0      
  3  4  2  0      
  4  5  1  0      
  5  6  2  0      
  6  7  1  0      
  7  8  2  0      
  7  9  1  0      
  9 10  1  0      
 10 11  2  0      
 11 12  1  0      
 12 13  1  0      
 13 14  1  0      
 14 15  1  0      
 15 16  1  0      
 16 17  1  0      
 16 18  1  0      
 16 19  1  0      
 12 20  2  0      
 20 21  1  0      
 21 22  2  0      
 10 22  1  0      
  6 23  1  0      
 23 24  2  0      
  3 24  1  0      
 24 25  1  0      
 25 26  2  0      
  2 26  1  0      
 26 27  1  0      
 27 28  2  0      
 28 29  1  0      
 29 30  2  0      
 30 31  1  0      
 31 32  2  0      
 31 33  1  0      
 33 34  1  0      
 34 35  2  0      
 35 36  1  0      
 36 37  1  0      
 37 38  1  0      
 38 39  1  0      
 39 40  1  0      
 40 41  1  0      
 40 42  1  0      
 40 43  1  0      
 36 44  2  0      
 44 45  1  0      
 45 46  2  0      
 34 46  1  0      
 30 47  1  0      
 47 48  2  0      
 27 48  1  0      
M  END

>  <RackCode>
HYCPK72335

>  <Cat. No.>
HY-148591

>  <Product Name>
GSK761

>  <ROW>
E

>  <COLUMN>
7

>  <CAS No.>


>  <MWt>
646.82

>  <Target>
Epigenetic Reader Domain

>  <Saltdate>


>  <Smiles>
CN1C2=CC=C(C=C2N=C1C3=CC=C(C=C3)C(NC4=CC(CCOC(C)(C)C)=CC=C4)=O)C(NC5=CC(CCOC(C)(C)C)=CC=C5)=O

>  <Solvent>
DMSO Solution

>  <Batch No.>
262066

>  <Quantity>
10mM  * 50uL

>  <Pathway>
Epigenetics

>  <Synonyms>


>  <Formula>
C40H46N4O4

>  <Research_Area>
Inflammation/Immunology

>  <Clinical_Information>
No Development Reported

>  <SUPPLIER>
MedChemExpress

$$$$
Untitled Document
  ChemDraw09122416072D

 35 39  0  0  0  0  0  0  0  0999 V2000
    1.7050   -1.9394    0.0000 C   0  0  0  0  0  0  0  0  0  0  0  0
    0.9920   -1.5243    0.0000 C   0  0  0  0  0  0  0  0  0  0  0  0
    0.9950   -0.6993    0.0000 C   0  0  0  0  0  0  0  0  0  0  0  0
    0.2820   -0.2843    0.0000 C   0  0  0  0  0  0  0  0  0  0  0  0
   -0.4339   -0.6942    0.0000 C   0  0  0  0  0  0  0  0  0  0  0  0
   -0.4369   -1.5192    0.0000 C   0  0  0  0  0  0  0  0  0  0  0  0
    0.2760   -1.9342    0.0000 C   0  0  0  0  0  0  0  0  0  0  0  0
    1.7020   -2.7644    0.0000 O   0  0  0  0  0  0  0  0  0  0  0  0
    2.4209   -1.5295    0.0000 N   0  0  0  0  0  0  0  0  0  0  0  0
   -1.1469   -0.2791    0.0000 C   0  0  0  0  0  0  0  0  0  0  0  0
   -1.8629   -0.6890    0.0000 S   0  0  0  0  0  0  0  0  0  0  0  0
   -4.0048   -0.2687    0.0000 N   0  0  0  0  0  0  0  0  0  0  0  0
   -3.2918   -0.6838    0.0000 N   0  0  0  0  0  0  0  0  0  0  0  0
   -2.5758   -0.2739    0.0000 C   0  0  0  0  0  0  0  0  0  0  0  0
   -2.5729    0.5511    0.0000 N   0  0  0  0  0  0  0  0  0  0  0  0
   -3.2858    0.9662    0.0000 C   0  0  0  0  0  0  0  0  0  0  0  0
   -4.0018    0.5563    0.0000 C   0  0  0  0  0  0  0  0  0  0  0  0
   -4.7855    0.8140    0.0000 C   0  0  0  0  0  0  0  0  0  0  0  0
   -5.2728    0.1484    0.0000 C   0  0  0  0  0  0  0  0  0  0  0  0
   -4.7903   -0.5208    0.0000 C   0  0  0  0  0  0  0  0  0  0  0  0
   -3.2828    1.7912    0.0000 N   0  0  0  0  0  0  0  0  0  0  0  0
   -1.6701    3.1898    0.0000 N   0  0  0  0  0  0  0  0  0  0  0  0
   -2.4777    3.0212    0.0000 N   0  0  0  0  0  0  0  0  0  0  0  0
   -2.5669    2.2011    0.0000 C   0  0  0  0  0  0  0  0  0  0  0  0
   -1.8144    1.8628    0.0000 C   0  0  0  0  0  0  0  0  0  0  0  0
   -1.2602    2.4739    0.0000 C   0  0  0  0  0  0  0  0  0  0  0  0
   -0.4400    2.3847    0.0000 C   0  0  0  0  0  0  0  0  0  0  0  0
    3.1339   -1.9446    0.0000 C   0  0  0  0  0  0  0  0  0  0  0  0
    3.8499   -1.5347    0.0000 C   0  0  0  0  0  0  0  0  0  0  0  0
    4.5628   -1.9498    0.0000 C   0  0  0  0  0  0  0  0  0  0  0  0
    4.5599   -2.7748    0.0000 C   0  0  0  0  0  0  0  0  0  0  0  0
    3.8439   -3.1847    0.0000 C   0  0  0  0  0  0  0  0  0  0  0  0
    3.1309   -2.7696    0.0000 C   0  0  0  0  0  0  0  0  0  0  0  0
    5.2728   -3.1898    0.0000 F   0  0  0  0  0  0  0  0  0  0  0  0
    3.8529   -0.7097    0.0000 N   0  0  0  0  0  0  0  0  0  0  0  0
  1  2  1  0      
  2  3  1  0      
  3  4  2  0      
  4  5  1  0      
  5  6  2  0      
  6  7  1  0      
  2  7  2  0      
  1  8  2  0      
  1  9  1  0      
 12 13  1  0      
 13 14  2  0      
 14 15  1  0      
 15 16  2  0      
 16 17  1  0      
 12 17  1  0      
 18 19  1  0      
 19 20  2  0      
 17 18  2  0      
 12 20  1  0      
 22 23  1  0      
 23 24  2  0      
 24 25  1  0      
 25 26  2  0      
 22 26  1  0      
 26 27  1  0      
 21 24  1  0      
 16 21  1  0      
 11 14  1  0      
 10 11  1  0      
  5 10  1  0      
 28 29  1  0      
 29 30  2  0      
 30 31  1  0      
 31 32  2  0      
 32 33  1  0      
 28 33  2  0      
 31 34  1  0      
 29 35  1  0      
  9 28  1  0      
M  END

>  <RackCode>
HYCPK72335

>  <Cat. No.>
HY-144315

>  <Product Name>
CYD19

>  <ROW>
F

>  <COLUMN>
7

>  <CAS No.>
2415281-52-4

>  <MWt>
488.54

>  <Target>
HDAC

>  <Saltdate>


>  <Smiles>
O=C(NC1=CC=C(F)C=C1N)C2=CC=C(CSC(N=C3NC4=NNC(C)=C4)=NN5C3=CC=C5)C=C2

>  <Solvent>
DMSO Solution

>  <Batch No.>
268926

>  <Quantity>
10mM  * 50uL

>  <Pathway>
Cell Cycle/DNA Damage; Epigenetics

>  <Synonyms>
Snail/HDAC-IN-1

>  <Formula>
C24H21FN8OS

>  <Research_Area>
Cancer

>  <Clinical_Information>
No Development Reported

>  <SUPPLIER>
MedChemExpress

$$$$
Untitled Document
  ChemDraw10132308462D

 26 29  0  0  0  0  0  0  0  0999 V2000
    4.4903    1.4391    0.0000 C   0  0  0  0  0  0  0  0  0  0  0  0
    4.9751    0.7716    0.0000 C   0  0  0  0  0  0  0  0  0  0  0  0
    4.6396    0.0179    0.0000 C   0  0  0  0  0  0  0  0  0  0  0  0
    3.8192   -0.0683    0.0000 N   0  0  0  0  0  0  0  0  0  0  0  0
    3.3342    0.5991    0.0000 C   0  0  0  0  0  0  0  0  0  0  0  0
    3.6698    1.3528    0.0000 C   0  0  0  0  0  0  0  0  0  0  0  0
    2.5138    0.5129    0.0000 C   0  0  0  0  0  0  0  0  0  0  0  0
    2.1013   -0.2016    0.0000 N   0  0  0  0  0  0  0  0  0  0  0  0
    1.2944   -0.0300    0.0000 N   0  0  0  0  0  0  0  0  0  0  0  0
    1.2082    0.7904    0.0000 N   0  0  0  0  0  0  0  0  0  0  0  0
    1.9617    1.1260    0.0000 N   0  0  0  0  0  0  0  0  0  0  0  0
    0.4937    1.2029    0.0000 C   0  0  0  0  0  0  0  0  0  0  0  0
   -0.2208    0.7904    0.0000 C   0  0  0  0  0  0  0  0  0  0  0  0
   -0.2208   -0.0346    0.0000 C   0  0  0  0  0  0  0  0  0  0  0  0
   -0.9353   -0.4471    0.0000 C   0  0  0  0  0  0  0  0  0  0  0  0
   -1.6497   -0.0346    0.0000 C   0  0  0  0  0  0  0  0  0  0  0  0
   -1.6497    0.7904    0.0000 C   0  0  0  0  0  0  0  0  0  0  0  0
   -0.9353    1.2029    0.0000 N   0  0  0  0  0  0  0  0  0  0  0  0
   -2.3641   -0.4471    0.0000 C   0  0  0  0  0  0  0  0  0  0  0  0
   -2.4503   -1.2675    0.0000 N   0  0  0  0  0  0  0  0  0  0  0  0
   -3.2573   -1.4391    0.0000 N   0  0  0  0  0  0  0  0  0  0  0  0
   -3.6698   -0.7246    0.0000 C   0  0  0  0  0  0  0  0  0  0  0  0
   -3.1178   -0.1115    0.0000 O   0  0  0  0  0  0  0  0  0  0  0  0
   -4.4903   -0.6384    0.0000 C   0  0  0  0  0  0  0  0  0  0  0  0
   -4.8258    0.1153    0.0000 F   0  0  0  0  0  0  0  0  0  0  0  0
   -4.9751   -1.3058    0.0000 F   0  0  0  0  0  0  0  0  0  0  0  0
  1  2  1  0      
  2  3  2  0      
  3  4  1  0      
  4  5  2  0      
  5  6  1  0      
  1  6  2  0      
  5  7  1  0      
  7  8  1  0      
  8  9  2  0      
  9 10  1  0      
 10 11  1  0      
  7 11  2  0      
 10 12  1  0      
 12 13  1  0      
 13 14  2  0      
 14 15  1  0      
 15 16  2  0      
 16 17  1  0      
 17 18  2  0      
 13 18  1  0      
 16 19  1  0      
 20 21  1  0      
 21 22  2  0      
 22 23  1  0      
 19 23  1  0      
 22 24  1  0      
 24 25  1  0      
 24 26  1  0      
 20 19  2  0      
M  END

>  <RackCode>
HYCPK72335

>  <Cat. No.>
HY-156274

>  <Product Name>
HDAC6-IN-23

>  <ROW>
G

>  <COLUMN>
7

>  <CAS No.>
2991427-09-7

>  <MWt>
356.29

>  <Target>
HDAC

>  <Saltdate>


>  <Smiles>
FC(F)C(O1)=NN=C1C(C=N2)=CC=C2CN3N=NC(C4=NC=CC=C4)=N3

>  <Solvent>
DMSO Solution

>  <Batch No.>
339079

>  <Quantity>
10mM  * 50uL

>  <Pathway>
Cell Cycle/DNA Damage; Epigenetics

>  <Synonyms>


>  <Formula>
C15H10F2N8O

>  <Research_Area>
Cancer

>  <Clinical_Information>
No Development Reported

>  <SUPPLIER>
MedChemExpress

$$$$
Untitled Document
  ChemDraw07291914342D

 40 45  0  0  0  0  0  0  0  0999 V2000
    2.4918    0.5890    0.0000 O   0  0  0  0  0  0  0  0  0  0  0  0
    3.2051    0.1748    0.0000 C   0  0  0  0  0  0  0  0  0  0  0  0
    1.7783    0.1748    0.0000 C   0  0  0  0  0  0  0  0  0  0  0  0
    1.0650    0.5927    0.0000 C   0  0  0  0  0  0  0  0  0  0  0  0
    0.3536    0.1748    0.0000 C   0  0  0  0  0  0  0  0  0  0  0  0
   -0.3577    0.5927    0.0000 C   0  0  0  0  0  0  0  0  0  0  0  0
   -1.0691    0.1748    0.0000 C   0  0  0  0  0  0  0  0  0  0  0  0
   -1.0691   -0.6590    0.0000 C   0  0  0  0  0  0  0  0  0  0  0  0
   -0.3577   -1.0688    0.0000 C   0  0  0  0  0  0  0  0  0  0  0  0
    0.3536   -0.6590    0.0000 C   0  0  0  0  0  0  0  0  0  0  0  0
    1.0650   -1.0688    0.0000 C   0  0  0  0  0  0  0  0  0  0  0  0
    1.7783   -0.6590    0.0000 C   0  0  0  0  0  0  0  0  0  0  0  0
    2.4918   -1.0651    0.0000 O   0  0  0  0  0  0  0  0  0  0  0  0
    1.0650   -1.9046    0.0000 C   0  0  0  0  0  0  0  0  0  0  0  0
    1.7783   -2.3110    0.0000 O   0  0  0  0  0  0  0  0  0  0  0  0
    0.3536   -2.3147    0.0000 C   0  0  0  0  0  0  0  0  0  0  0  0
   -0.3577   -1.9046    0.0000 C   0  0  0  0  0  0  0  0  0  0  0  0
   -1.0629   -2.3222    0.0000 O   0  0  0  0  0  0  0  0  0  0  0  0
   -1.0629   -3.1485    0.0000 C   0  0  0  0  0  0  0  0  0  0  0  0
   -1.7804   -1.0688    0.0000 C   0  0  0  0  0  0  0  0  0  0  0  0
   -1.7804   -2.0745    0.0000 O   0  0  0  0  0  0  0  0  0  0  0  0
   -2.4978   -2.4866    0.0000 C   0  0  0  0  0  0  0  0  0  0  0  0
   -2.4918   -0.6590    0.0000 C   0  0  0  0  0  0  0  0  0  0  0  0
   -2.4918    0.1748    0.0000 C   0  0  0  0  0  0  0  0  0  0  0  0
   -1.7804    0.5927    0.0000 C   0  0  0  0  0  0  0  0  0  0  0  0
   -1.7804    1.4207    0.0000 C   0  0  0  0  0  0  0  0  0  0  0  0
   -1.0691    1.8386    0.0000 C   0  0  0  0  0  0  0  0  0  0  0  0
   -0.3577    1.4207    0.0000 C   0  0  0  0  0  0  0  0  0  0  0  0
   -0.0614    2.1899    0.0000 C   0  0  0  0  0  0  0  0  0  0  0  0
    0.7685    2.1899    0.0000 C   0  0  0  0  0  0  0  0  0  0  0  0
    1.0650    1.4207    0.0000 C   0  0  0  0  0  0  0  0  0  0  0  0
    1.7783    1.8349    0.0000 C   0  0  0  0  0  0  0  0  0  0  0  0
    2.4939    1.4207    0.0000 C   0  0  0  0  0  0  0  0  0  0  0  0
    1.7783    2.6531    0.0000 O   0  0  0  0  0  0  0  0  0  0  0  0
    1.5658    2.4017    0.0000 C   0  0  0  0  0  0  0  0  0  0  0  0
    0.6276    3.0050    0.0000 O   0  0  0  0  0  0  0  0  0  0  0  0
   -1.0691    2.6568    0.0000 O   0  0  0  0  0  0  0  0  0  0  0  0
   -1.9214    3.1485    0.0000 C   0  0  0  0  0  0  0  0  0  0  0  0
   -2.4939    1.8349    0.0000 O   0  0  0  0  0  0  0  0  0  0  0  0
   -3.2051    0.5890    0.0000 O   0  0  0  0  0  0  0  0  0  0  0  0
  1  2  1  0      
  1  3  1  0      
  3  4  2  0      
  3 12  1  0      
  4  5  1  0      
  4 31  1  0      
  5  6  1  0      
  5 10  2  0      
  6  7  2  0      
  6 28  1  0      
  7  8  1  0      
  7 25  1  0      
  9  8  2  0      
  8 20  1  0      
 10  9  1  0      
  9 17  1  0      
 11 10  1  0      
 12 11  1  0      
 11 14  2  0      
 12 13  2  0      
 14 15  1  0      
 14 16  1  0      
 16 17  2  0      
 17 18  1  0      
 18 19  1  0      
 20 21  1  0      
 20 23  2  0      
 21 22  1  0      
 24 23  1  0      
 25 24  2  0      
 24 40  1  0      
 25 26  1  0      
 27 26  1  0      
 26 39  2  0      
 28 27  2  0      
 27 37  1  0      
 28 29  1  0      
 30 29  1  0      
 31 30  1  0      
 30 35  1  0      
 30 36  1  0      
 31 32  1  0      
 32 33  1  0      
 32 34  2  0      
 37 38  1  0      
M  END

>  <RackCode>
HYCPK72335

>  <Cat. No.>
HY-N2575

>  <Product Name>
Hypocrellin A

>  <ROW>
H

>  <COLUMN>
7

>  <CAS No.>
77029-83-5

>  <MWt>
546.52

>  <Target>
Bacterial; Parasite; PKC

>  <Saltdate>
Free Base

>  <Smiles>
COC(C1=O)=C2C3=C(C1=C(C=C4OC)O)C4=C(C(OC)=CC(O)=C56)C5=C3C(CC(C)(O)C2C(C)=O)=C(OC)C6=O

>  <Solvent>
DMSO Solution

>  <Batch No.>
256646

>  <Quantity>
10mM  * 50uL

>  <Pathway>
Anti-infection; Epigenetics; TGF-beta/Smad

>  <Synonyms>


>  <Formula>
C30H26O10

>  <Research_Area>
Cancer; Infection

>  <Clinical_Information>
No Development Reported

>  <SUPPLIER>
MedChemExpress

$$$$
Untitled Document
  ChemDraw01212211002D

 35 39  0  0  0  0  0  0  0  0999 V2000
    4.8240   -0.0424    0.0000 O   0  0  0  0  0  0  0  0  0  0  0  0
    4.4115    0.6721    0.0000 C   0  0  0  0  0  0  0  0  0  0  0  0
    4.8240    1.3866    0.0000 N   0  0  0  0  0  0  0  0  0  0  0  0
    5.6489    1.3866    0.0000 C   0  0  0  0  0  0  0  0  0  0  0  0
    6.2322    1.9698    0.0000 C   0  0  0  0  0  0  0  0  0  0  0  0
    6.8156    1.3866    0.0000 C   0  0  0  0  0  0  0  0  0  0  0  0
    6.2322    0.8032    0.0000 C   0  0  0  0  0  0  0  0  0  0  0  0
    3.5865    0.6721    0.0000 C   0  0  0  0  0  0  0  0  0  0  0  0
    3.1740    1.3866    0.0000 C   0  0  0  0  0  0  0  0  0  0  0  0
    2.3490    1.3866    0.0000 C   0  0  0  0  0  0  0  0  0  0  0  0
    1.9365    0.6721    0.0000 C   0  0  0  0  0  0  0  0  0  0  0  0
    1.1296    0.5006    0.0000 N   0  0  0  0  0  0  0  0  0  0  0  0
    1.0434   -0.3199    0.0000 C   0  0  0  0  0  0  0  0  0  0  0  0
    1.7970   -0.6555    0.0000 C   0  0  0  0  0  0  0  0  0  0  0  0
    2.3490   -0.0424    0.0000 N   0  0  0  0  0  0  0  0  0  0  0  0
    3.1740   -0.0424    0.0000 C   0  0  0  0  0  0  0  0  0  0  0  0
    0.3289   -0.7324    0.0000 C   0  0  0  0  0  0  0  0  0  0  0  0
    0.3289   -1.5574    0.0000 C   0  0  0  0  0  0  0  0  0  0  0  0
   -0.3856   -1.9698    0.0000 C   0  0  0  0  0  0  0  0  0  0  0  0
   -1.1000   -1.5574    0.0000 C   0  0  0  0  0  0  0  0  0  0  0  0
   -1.1000   -0.7324    0.0000 C   0  0  0  0  0  0  0  0  0  0  0  0
   -0.3856   -0.3199    0.0000 C   0  0  0  0  0  0  0  0  0  0  0  0
   -1.8145   -0.3199    0.0000 N   0  0  0  0  0  0  0  0  0  0  0  0
   -2.5289   -0.7324    0.0000 S   0  0  0  0  0  0  0  0  0  0  0  0
   -2.9414   -0.0180    0.0000 O   0  0  0  0  0  0  0  0  0  0  0  0
   -2.1164   -1.4469    0.0000 O   0  0  0  0  0  0  0  0  0  0  0  0
   -3.2434   -1.1449    0.0000 N   0  0  0  0  0  0  0  0  0  0  0  0
   -3.9578   -0.7324    0.0000 C   0  0  0  0  0  0  0  0  0  0  0  0
   -4.6723   -1.1449    0.0000 C   0  0  0  0  0  0  0  0  0  0  0  0
   -5.3868   -0.7324    0.0000 N   0  0  0  0  0  0  0  0  0  0  0  0
   -6.1011   -1.1449    0.0000 C   0  0  0  0  0  0  0  0  0  0  0  0
   -6.8156   -0.7324    0.0000 C   0  0  0  0  0  0  0  0  0  0  0  0
   -6.8156    0.0926    0.0000 C   0  0  0  0  0  0  0  0  0  0  0  0
   -6.1011    0.5051    0.0000 C   0  0  0  0  0  0  0  0  0  0  0  0
   -5.3868    0.0926    0.0000 C   0  0  0  0  0  0  0  0  0  0  0  0
  1  2  2  0      
  2  3  1  0      
  3  4  1  0      
  4  5  1  0      
  5  6  1  0      
  6  7  1  0      
  4  7  1  0      
  2  8  1  0      
  8  9  1  0      
  9 10  2  0      
 10 11  1  0      
 11 12  2  0      
 12 13  1  0      
 13 14  2  0      
 14 15  1  0      
 11 15  1  0      
 15 16  1  0      
  8 16  2  0      
 13 17  1  0      
 17 18  1  0      
 18 19  2  0      
 19 20  1  0      
 20 21  2  0      
 21 22  1  0      
 17 22  2  0      
 21 23  1  0      
 23 24  1  0      
 24 25  2  0      
 24 26  2  0      
 24 27  1  0      
 27 28  1  0      
 28 29  1  0      
 29 30  1  0      
 30 31  1  0      
 31 32  1  0      
 32 33  1  0      
 33 34  1  0      
 34 35  1  0      
 30 35  1  0      
M  END

>  <RackCode>
HYCPK72335

>  <Cat. No.>
HY-145409

>  <Product Name>
SR-0813

>  <ROW>
I

>  <COLUMN>
7

>  <CAS No.>
2597186-19-9

>  <MWt>
496.62

>  <Target>
Epigenetic Reader Domain

>  <Saltdate>


>  <Smiles>
O=C(C1=CN2C=C(C3=CC(NS(=O)(NCCN4CCCCC4)=O)=CC=C3)N=C2C=C1)NC5CCC5

>  <Solvent>
DMSO Solution

>  <Batch No.>
312578

>  <Quantity>
10mM  * 50uL

>  <Pathway>
Epigenetics

>  <Synonyms>


>  <Formula>
C25H32N6O3S

>  <Research_Area>
Cancer

>  <Clinical_Information>
No Development Reported

>  <SUPPLIER>
MedChemExpress

$$$$
Untitled Document
  ChemDraw04142014082D

 41 43  0  0  0  0  0  0  0  0999 V2000
   -4.2656    1.0649    0.0000 C   0  0  0  0  0  0  0  0  0  0  0  0
   -4.2656    0.2399    0.0000 C   0  0  0  0  0  0  0  0  0  0  0  0
   -3.5512   -0.1726    0.0000 C   0  0  0  0  0  0  0  0  0  0  0  0
   -2.8367    0.2399    0.0000 C   0  0  0  0  0  0  0  0  0  0  0  0
   -2.8367    1.0649    0.0000 C   0  0  0  0  0  0  0  0  0  0  0  0
   -3.5512    1.4774    0.0000 C   0  0  0  0  0  0  0  0  0  0  0  0
   -4.9776    1.4760    0.0000 Cl  0  0  0  0  0  0  0  0  0  0  0  0
   -3.5512    2.2995    0.0000 Cl  0  0  0  0  0  0  0  0  0  0  0  0
   -2.1247   -0.1712    0.0000 C   0  0  0  0  0  0  0  0  0  0  0  0
   -1.4127    0.2399    0.0000 N   0  0  0  0  0  0  0  0  0  0  0  0
   -0.7032   -0.1697    0.0000 C   0  0  0  0  0  0  0  0  0  0  0  0
    0.0038    0.2385    0.0000 C   0  0  0  0  0  0  0  0  0  0  0  0
   -0.7032   -0.9861    0.0000 O   0  0  0  0  0  0  0  0  0  0  0  0
    0.7183   -0.1740    0.0000 C   0  0  0  0  0  0  0  0  0  0  0  0
    1.4328    0.2385    0.0000 C   0  0  0  0  0  0  0  0  0  0  0  0
    1.4328    1.0635    0.0000 C   0  0  0  0  0  0  0  0  0  0  0  0
    0.7183    1.4760    0.0000 C   0  0  0  0  0  0  0  0  0  0  0  0
    0.0038    1.0635    0.0000 C   0  0  0  0  0  0  0  0  0  0  0  0
    2.1448   -0.1726    0.0000 C   0  0  0  0  0  0  0  0  0  0  0  0
    2.8543    0.2370    0.0000 N   0  0  0  0  0  0  0  0  0  0  0  0
    3.6080   -0.0985    0.0000 C   0  0  0  0  0  0  0  0  0  0  0  0
    4.1600    0.5146    0.0000 N   0  0  0  0  0  0  0  0  0  0  0  0
    3.7475    1.2290    0.0000 C   0  0  0  0  0  0  0  0  0  0  0  0
    2.9405    1.0575    0.0000 C   0  0  0  0  0  0  0  0  0  0  0  0
    4.9776    0.4286    0.0000 C   0  0  0  0  0  0  0  0  0  0  0  0
    3.7789   -0.9027    0.0000 N   0  0  0  0  0  0  0  0  0  0  0  0
    0.7183    2.2981    0.0000 C   0  0  0  0  0  0  0  0  0  0  0  0
    1.4328    2.7106    0.0000 C   0  0  0  0  0  0  0  0  0  0  0  0
    1.4328    3.5356    0.0000 N   0  0  0  0  0  0  0  0  0  0  0  0
    0.7183    3.9481    0.0000 C   0  0  0  0  0  0  0  0  0  0  0  0
    0.0038    3.5356    0.0000 C   0  0  0  0  0  0  0  0  0  0  0  0
    0.0038    2.7106    0.0000 C   0  0  0  0  0  0  0  0  0  0  0  0
    2.1448    2.2995    0.0000 C   0  0  0  0  0  0  0  0  0  0  0  0
    0.7183    4.7702    0.0000 F   0  0  0  0  0  0  0  0  0  0  0  0
   -0.1996   -3.9452    0.0000 C   0  0  0  0  0  0  0  0  0  0  0  0
    0.5149   -3.5327    0.0000 C   0  0  0  0  0  0  0  0  0  0  0  0
    0.5149   -2.7077    0.0000 O   0  0  0  0  0  0  0  0  0  0  0  0
    1.2293   -3.9452    0.0000 O   0  0  0  0  0  0  0  0  0  0  0  0
   -0.1996   -4.7702    0.0000 F   0  0  0  0  0  0  0  0  0  0  0  0
   -0.9141   -3.5327    0.0000 F   0  0  0  0  0  0  0  0  0  0  0  0
   -0.9141   -4.3577    0.0000 F   0  0  0  0  0  0  0  0  0  0  0  0
  1  2  2  0      
  2  3  1  0      
  3  4  2  0      
  4  5  1  0      
  5  6  2  0      
  6  1  1  0      
  1  7  1  0      
  6  8  1  0      
  4  9  1  0      
  9 10  1  0      
 10 11  1  0      
 11 12  1  0      
 11 13  2  0      
 12 14  2  0      
 14 15  1  0      
 15 16  2  0      
 16 17  1  0      
 17 18  2  0      
 18 12  1  0      
 15 19  1  0      
 19 20  1  0      
 20 21  1  0      
 21 22  1  0      
 22 23  1  0      
 23 24  2  0      
 24 20  1  0      
 22 25  1  0      
 21 26  2  0      
 17 27  1  0      
 27 28  2  0      
 28 29  1  0      
 29 30  2  0      
 30 31  1  0      
 31 32  2  0      
 32 27  1  0      
 28 33  1  0      
 30 34  1  0      
 35 36  1  0      
 36 37  2  0      
 36 38  1  0      
 35 39  1  0      
 35 40  1  0      
 35 41  1  0      
M  END

>  <RackCode>
HYCPK72335

>  <Cat. No.>
HY-111753A

>  <Product Name>
WDR5-IN-4 (TFA)

>  <ROW>
J

>  <COLUMN>
7

>  <CAS No.>
2749300-35-2

>  <MWt>
612.40

>  <Target>
Histone Methyltransferase

>  <Saltdate>
Trifluoroacetate

>  <Smiles>
ClC1=CC=C(CNC(C2=CC(CN3C(N(C)C=C3)=N)=CC(C4=C(C)N=C(F)C=C4)=C2)=O)C=C1Cl.O=C(O)C(F)(F)F

>  <Solvent>
DMSO Solution

>  <Batch No.>
275253

>  <Quantity>
10mM  * 50uL

>  <Pathway>
Epigenetics

>  <Synonyms>


>  <Formula>
C27H23Cl2F4N5O3

>  <Research_Area>
Cancer

>  <Clinical_Information>
No Development Reported

>  <SUPPLIER>
MedChemExpress

$$$$
Untitled Document
  ChemDraw01171915262D

 26 28  0  0  0  0  0  0  0  0999 V2000
   -0.7145   -1.0298    0.0000 C   0  0  0  0  0  0  0  0  0  0  0  0
    0.0000   -1.4423    0.0000 C   0  0  0  0  0  0  0  0  0  0  0  0
    0.7145   -1.0298    0.0000 C   0  0  0  0  0  0  0  0  0  0  0  0
    1.4289   -1.4423    0.0000 C   0  0  0  0  0  0  0  0  0  0  0  0
    1.4289   -2.2673    0.0000 C   0  0  0  0  0  0  0  0  0  0  0  0
    0.7145   -2.6798    0.0000 C   0  0  0  0  0  0  0  0  0  0  0  0
    0.0000   -2.2673    0.0000 C   0  0  0  0  0  0  0  0  0  0  0  0
   -0.7145   -0.2048    0.0000 O   0  0  0  0  0  0  0  0  0  0  0  0
   -1.4289   -1.4423    0.0000 N   0  0  0  0  0  0  0  0  0  0  0  0
   -2.1434   -1.0298    0.0000 C   0  0  0  0  0  0  0  0  0  0  0  0
   -2.1434   -0.2048    0.0000 C   0  0  0  0  0  0  0  0  0  0  0  0
   -2.8579    0.2077    0.0000 C   0  0  0  0  0  0  0  0  0  0  0  0
   -3.5724   -0.2048    0.0000 C   0  0  0  0  0  0  0  0  0  0  0  0
   -3.5724   -1.0298    0.0000 C   0  0  0  0  0  0  0  0  0  0  0  0
   -2.8579   -1.4423    0.0000 C   0  0  0  0  0  0  0  0  0  0  0  0
    2.1434   -2.6798    0.0000 N   0  0  0  0  0  0  0  0  0  0  0  0
    2.8579   -2.2673    0.0000 C   0  0  0  0  0  0  0  0  0  0  0  0
    2.8579   -1.4423    0.0000 O   0  0  0  0  0  0  0  0  0  0  0  0
    3.5724   -2.6798    0.0000 C   0  0  0  0  0  0  0  0  0  0  0  0
   -2.8579   -2.2645    0.0000 N   0  0  0  0  0  0  0  0  0  0  0  0
   -2.8579    1.0298    0.0000 C   0  0  0  0  0  0  0  0  0  0  0  0
   -2.1434    1.4423    0.0000 C   0  0  0  0  0  0  0  0  0  0  0  0
   -2.1434    2.2673    0.0000 C   0  0  0  0  0  0  0  0  0  0  0  0
   -2.8579    2.6798    0.0000 N   0  0  0  0  0  0  0  0  0  0  0  0
   -3.5724    2.2673    0.0000 C   0  0  0  0  0  0  0  0  0  0  0  0
   -3.5724    1.4423    0.0000 C   0  0  0  0  0  0  0  0  0  0  0  0
  1  2  1  0      
  2  3  1  0      
  3  4  2  0      
  4  5  1  0      
  5  6  2  0      
  6  7  1  0      
  2  7  2  0      
  1  8  2  0      
  1  9  1  0      
 10 11  1  0      
 11 12  2  0      
 12 13  1  0      
 13 14  2  0      
 14 15  1  0      
 10 15  2  0      
  9 10  1  0      
 17 18  2  0      
 17 19  1  0      
 16 17  1  0      
  5 16  1  0      
 15 20  1  0      
 12 21  1  0      
 21 22  2  0      
 22 23  1  0      
 23 24  2  0      
 24 25  1  0      
 25 26  2  0      
 26 21  1  0      
M  END

>  <RackCode>
HYCPK72335

>  <Cat. No.>
HY-124053

>  <Product Name>
BRD2492

>  <ROW>
K

>  <COLUMN>
7

>  <CAS No.>
1821669-43-5

>  <MWt>
346.38

>  <Target>
HDAC

>  <Saltdate>


>  <Smiles>
O=C(NC1=C(N)C=CC(C2=CC=NC=C2)=C1)C3=CC=C(NC(C)=O)C=C3

>  <Solvent>
DMSO Solution

>  <Batch No.>
344494

>  <Quantity>
10mM  * 50uL

>  <Pathway>
Cell Cycle/DNA Damage; Epigenetics

>  <Synonyms>


>  <Formula>
C20H18N4O2

>  <Research_Area>
Cancer

>  <Clinical_Information>
No Development Reported

>  <SUPPLIER>
MedChemExpress

$$$$
Untitled Document
  ChemDraw09132214012D

 28 31  0  0  0  0  0  0  0  0999 V2000
   -4.0179   -1.7286    0.0000 C   0  0  0  0  0  0  0  0  0  0  0  0
   -3.3034   -1.3161    0.0000 C   0  0  0  0  0  0  0  0  0  0  0  0
   -2.5889   -1.7286    0.0000 N   0  0  0  0  0  0  0  0  0  0  0  0
   -1.8745   -1.3161    0.0000 N   0  0  0  0  0  0  0  0  0  0  0  0
   -1.1600   -1.7286    0.0000 C   0  0  0  0  0  0  0  0  0  0  0  0
   -1.1600   -2.5536    0.0000 O   0  0  0  0  0  0  0  0  0  0  0  0
   -0.4455   -1.3161    0.0000 C   0  0  0  0  0  0  0  0  0  0  0  0
   -0.4455   -0.4911    0.0000 C   0  0  0  0  0  0  0  0  0  0  0  0
    0.2689   -0.0786    0.0000 C   0  0  0  0  0  0  0  0  0  0  0  0
    0.9834   -0.4911    0.0000 C   0  0  0  0  0  0  0  0  0  0  0  0
    1.6979   -0.0786    0.0000 C   0  0  0  0  0  0  0  0  0  0  0  0
    1.6979    0.7464    0.0000 N   0  0  0  0  0  0  0  0  0  0  0  0
    0.9546    1.1043    0.0000 C   0  0  0  0  0  0  0  0  0  0  0  0
    0.3498    0.5432    0.0000 C   0  0  0  0  0  0  0  0  0  0  0  0
   -0.4385    0.7863    0.0000 C   0  0  0  0  0  0  0  0  0  0  0  0
   -0.6221    1.5907    0.0000 C   0  0  0  0  0  0  0  0  0  0  0  0
   -0.0173    2.1518    0.0000 C   0  0  0  0  0  0  0  0  0  0  0  0
    0.7710    1.9086    0.0000 C   0  0  0  0  0  0  0  0  0  0  0  0
    1.2854    2.5536    0.0000 C   0  0  0  0  0  0  0  0  0  0  0  0
    2.1104    2.5536    0.0000 C   0  0  0  0  0  0  0  0  0  0  0  0
    2.6248    1.9086    0.0000 C   0  0  0  0  0  0  0  0  0  0  0  0
    2.4412    1.1043    0.0000 C   0  0  0  0  0  0  0  0  0  0  0  0
    3.0460    0.5432    0.0000 C   0  0  0  0  0  0  0  0  0  0  0  0
    3.8343    0.7863    0.0000 N   0  0  0  0  0  0  0  0  0  0  0  0
    4.0179    1.5907    0.0000 C   0  0  0  0  0  0  0  0  0  0  0  0
    3.4131    2.1518    0.0000 C   0  0  0  0  0  0  0  0  0  0  0  0
    0.9834   -1.3161    0.0000 C   0  0  0  0  0  0  0  0  0  0  0  0
    0.2689   -1.7286    0.0000 C   0  0  0  0  0  0  0  0  0  0  0  0
  1  2  1  0      
  2  3  1  0      
  3  4  1  0      
  4  5  1  0      
  5  6  2  0      
  5  7  1  0      
  7  8  2  0      
  8  9  1  0      
  9 10  2  0      
 10 11  1  0      
 11 12  1  0      
 12 13  1  0      
 13 14  2  0      
 14 15  1  0      
 15 16  2  0      
 16 17  1  0      
 17 18  2  0      
 13 18  1  0      
 18 19  1  0      
 19 20  2  0      
 20 21  1  0      
 21 22  2  0      
 12 22  1  0      
 22 23  1  0      
 23 24  2  0      
 24 25  1  0      
 25 26  2  0      
 21 26  1  0      
 10 27  1  0      
 27 28  2  0      
  7 28  1  0      
M  END

>  <RackCode>
HYCPK72335

>  <Cat. No.>
HY-151261

>  <Product Name>
HDAC6-IN-13

>  <ROW>
L

>  <COLUMN>
7

>  <CAS No.>
2837128-41-1

>  <MWt>
370.45

>  <Target>
HDAC

>  <Saltdate>


>  <Smiles>
CCNNC(C1=CC=C(C=C1)CN2C3=CC=CC=C3C=CC4=C2C=NC=C4)=O

>  <Solvent>
DMSO Solution

>  <Batch No.>
382966

>  <Quantity>
10mM  * 50uL

>  <Pathway>
Cell Cycle/DNA Damage; Epigenetics

>  <Synonyms>


>  <Formula>
C23H22N4O

>  <Research_Area>
Inflammation/Immunology

>  <Clinical_Information>
No Development Reported

>  <SUPPLIER>
MedChemExpress

$$$$
Untitled Document
  ChemDraw10272110342D

 30 32  0  0  0  0  0  0  0  0999 V2000
   -0.7145    3.3000    0.0000 N   0  0  0  0  0  0  0  0  0  0  0  0
   -0.7145    2.4750    0.0000 C   0  0  0  0  0  0  0  0  0  0  0  0
   -0.7145    1.6500    0.0000 C   0  0  0  0  0  0  0  0  0  0  0  0
   -0.0000    1.2375    0.0000 C   0  0  0  0  0  0  0  0  0  0  0  0
   -0.0000    0.4125    0.0000 N   0  0  0  0  0  0  0  0  0  0  0  0
   -0.7145    0.0000    0.0000 C   0  0  0  0  0  0  0  0  0  0  0  0
   -1.4289    0.4125    0.0000 C   0  0  0  0  0  0  0  0  0  0  0  0
   -2.1434    0.0000    0.0000 C   0  0  0  0  0  0  0  0  0  0  0  0
   -2.8579   -0.4125    0.0000 N   0  0  0  0  0  0  0  0  0  0  0  0
   -1.4289    1.2375    0.0000 C   0  0  0  0  0  0  0  0  0  0  0  0
   -2.1434    1.6500    0.0000 C   0  0  0  0  0  0  0  0  0  0  0  0
   -2.8579    1.2375    0.0000 C   0  0  0  0  0  0  0  0  0  0  0  0
   -0.7145   -0.8250    0.0000 N   0  0  0  0  0  0  0  0  0  0  0  0
   -0.0000   -1.2375    0.0000 C   0  0  0  0  0  0  0  0  0  0  0  0
   -0.0000   -2.0625    0.0000 C   0  0  0  0  0  0  0  0  0  0  0  0
   -0.7145   -2.4750    0.0000 C   0  0  0  0  0  0  0  0  0  0  0  0
   -0.7145   -3.3000    0.0000 N   0  0  0  0  0  0  0  0  0  0  0  0
   -1.4289   -2.0625    0.0000 C   0  0  0  0  0  0  0  0  0  0  0  0
   -1.4289   -1.2375    0.0000 C   0  0  0  0  0  0  0  0  0  0  0  0
    0.7145    1.6500    0.0000 S   0  0  0  0  0  0  0  0  0  0  0  0
    1.4289    1.2375    0.0000 C   0  0  0  0  0  0  0  0  0  0  0  0
    2.1434    1.6500    0.0000 C   0  0  0  0  0  0  0  0  0  0  0  0
    2.1434    2.4750    0.0000 O   0  0  0  0  0  0  0  0  0  0  0  0
    2.8579    1.2375    0.0000 N   0  0  0  0  0  0  0  0  0  0  0  0
    1.4289    0.4125    0.0000 C   0  0  0  0  0  0  0  0  0  0  0  0
    2.1434    0.0000    0.0000 C   0  0  0  0  0  0  0  0  0  0  0  0
    2.1434   -0.8250    0.0000 C   0  0  0  0  0  0  0  0  0  0  0  0
    1.4289   -1.2375    0.0000 C   0  0  0  0  0  0  0  0  0  0  0  0
    0.7145   -0.8250    0.0000 C   0  0  0  0  0  0  0  0  0  0  0  0
    0.7145    0.0000    0.0000 C   0  0  0  0  0  0  0  0  0  0  0  0
  1  2  3  0      
  2  3  1  0      
  3  4  2  0      
  4  5  1  0      
  5  6  2  0      
  6  7  1  0      
  7  8  1  0      
  8  9  3  0      
  7 10  2  0      
  3 10  1  0      
 10 11  1  0      
 11 12  1  0      
  6 13  1  0      
 13 14  1  0      
 14 15  1  0      
 15 16  1  0      
 16 17  1  0      
 16 18  1  0      
 18 19  1  0      
 13 19  1  0      
  4 20  1  0      
 20 21  1  0      
 21 22  1  0      
 22 23  2  0      
 22 24  1  0      
 21 25  1  0      
 25 26  1  0      
 26 27  2  0      
 27 28  1  0      
 28 29  2  0      
 29 30  1  0      
 25 30  2  0      
M  END

>  <RackCode>
HYCPK72335

>  <Cat. No.>
HY-139664

>  <Product Name>
GSK-3685032

>  <ROW>
M

>  <COLUMN>
7

>  <CAS No.>
2170137-61-6

>  <MWt>
420.53

>  <Target>
DNA Methyltransferase

>  <Saltdate>


>  <Smiles>
N#CC1=C(SC(C2=CC=CC=C2)C(N)=O)N=C(N3CCC(CC3)N)C(C#N)=C1CC

>  <Solvent>
DMSO Solution

>  <Batch No.>
228062

>  <Quantity>
10mM  * 50uL

>  <Pathway>
Epigenetics

>  <Synonyms>


>  <Formula>
C22H24N6OS

>  <Research_Area>
Cancer

>  <Clinical_Information>
No Development Reported

>  <SUPPLIER>
MedChemExpress

$$$$
Untitled Document
  ChemDraw10212111192D

 33 39  0  0  0  0  0  0  0  0999 V2000
    0.0000   -0.4330    0.0000 C   0  0  0  0  0  0  0  0  0  0  0  0
    0.7145   -0.0205    0.0000 C   0  0  0  0  0  0  0  0  0  0  0  0
    1.4289   -0.4330    0.0000 C   0  0  0  0  0  0  0  0  0  0  0  0
    2.1433   -0.0205    0.0000 C   0  0  0  0  0  0  0  0  0  0  0  0
    2.1433    0.8045    0.0000 C   0  0  0  0  0  0  0  0  0  0  0  0
    1.4289    1.2170    0.0000 C   0  0  0  0  0  0  0  0  0  0  0  0
    0.7145    0.8045    0.0000 C   0  0  0  0  0  0  0  0  0  0  0  0
    0.0000    1.2170    0.0000 O   0  0  0  0  0  0  0  0  0  0  0  0
   -0.7145    0.8045    0.0000 C   0  0  0  0  0  0  0  0  0  0  0  0
   -1.4289    1.2170    0.0000 C   0  0  0  0  0  0  0  0  0  0  0  0
   -2.1433    0.8045    0.0000 C   0  0  0  0  0  0  0  0  0  0  0  0
   -2.1433   -0.0205    0.0000 C   0  0  0  0  0  0  0  0  0  0  0  0
   -1.4289   -0.4330    0.0000 C   0  0  0  0  0  0  0  0  0  0  0  0
   -0.7145   -0.0205    0.0000 C   0  0  0  0  0  0  0  0  0  0  0  0
    1.4289    2.0419    0.0000 C   0  0  0  0  0  0  0  0  0  0  0  0
    2.1433    2.4544    0.0000 C   0  0  0  0  0  0  0  0  0  0  0  0
    2.8578    2.0419    0.0000 C   0  0  0  0  0  0  0  0  0  0  0  0
    2.8578    1.2170    0.0000 C   0  0  0  0  0  0  0  0  0  0  0  0
   -2.8578    1.2170    0.0000 C   0  0  0  0  0  0  0  0  0  0  0  0
   -2.8578    2.0419    0.0000 C   0  0  0  0  0  0  0  0  0  0  0  0
   -2.1433    2.4544    0.0000 C   0  0  0  0  0  0  0  0  0  0  0  0
   -1.4289    2.0419    0.0000 C   0  0  0  0  0  0  0  0  0  0  0  0
    0.7415   -0.7946    0.0000 O   0  0  0  0  0  0  0  0  0  0  0  0
    0.6267   -1.6116    0.0000 C   0  0  0  0  0  0  0  0  0  0  0  0
   -0.1858   -1.7548    0.0000 C   0  0  0  0  0  0  0  0  0  0  0  0
   -0.6230   -2.4544    0.0000 C   0  0  0  0  0  0  0  0  0  0  0  0
   -1.4475   -2.4256    0.0000 C   0  0  0  0  0  0  0  0  0  0  0  0
   -1.8347   -1.6972    0.0000 C   0  0  0  0  0  0  0  0  0  0  0  0
   -1.3976   -0.9976    0.0000 C   0  0  0  0  0  0  0  0  0  0  0  0
   -0.5731   -1.0264    0.0000 C   0  0  0  0  0  0  0  0  0  0  0  0
    1.2201   -2.1846    0.0000 O   0  0  0  0  0  0  0  0  0  0  0  0
   -3.5723    2.4544    0.0000 O   0  0  0  0  0  0  0  0  0  0  0  0
    3.5723    2.4544    0.0000 O   0  0  0  0  0  0  0  0  0  0  0  0
  1  2  1  0      
  2  3  1  0      
  3  4  2  0      
  4  5  1  0      
  5  6  1  0      
  6  7  1  0      
  2  7  2  0      
  7  8  1  0      
  8  9  1  0      
  9 10  1  0      
 10 11  1  0      
 11 12  1  0      
 12 13  2  0      
 13 14  1  0      
  9 14  2  0      
  1 14  1  0      
 15 16  1  0      
 16 17  2  0      
 17 18  1  0      
  5 18  2  0      
  6 15  2  0      
 19 20  1  0      
 20 21  2  0      
 21 22  1  0      
 10 22  2  0      
 11 19  2  0      
 23 24  1  0      
 24 25  1  0      
 25 26  1  0      
 26 27  2  0      
 27 28  1  0      
 28 29  2  0      
 29 30  1  0      
 25 30  2  0      
  1 23  1  0      
  1 30  1  0      
 24 31  2  0      
 20 32  1  0      
 17 33  1  0      
M  END

>  <RackCode>
HYCPK72335

>  <Cat. No.>
HY-124473

>  <Product Name>
Naphthofluorescein

>  <ROW>
N

>  <COLUMN>
7

>  <CAS No.>
61419-02-1

>  <MWt>
432.42

>  <Target>
HIF/HIF Prolyl-Hydroxylase

>  <Saltdate>


>  <Smiles>
O=C(C1=C2C=CC=C1)OC32C4=C(OC5=C3C=CC6=CC(O)=CC=C56)C7=CC=C(O)C=C7C=C4

>  <Solvent>
DMSO Solution

>  <Batch No.>
267163

>  <Quantity>
10mM  * 50uL

>  <Pathway>
Metabolic Enzyme/Protease

>  <Synonyms>
Naphthafluorescein

>  <Formula>
C28H16O5

>  <Research_Area>
Cancer

>  <Clinical_Information>
No Development Reported

>  <SUPPLIER>
MedChemExpress

$$$$
Untitled Document
  ChemDraw12281517132D

 25 28  0  0  0  0  0  0  0  0999 V2000
   -1.7421    3.1075    0.0000 C   0  0  0  0  0  0  0  0  0  0  0  0
   -1.0277    3.5200    0.0000 N   0  0  0  0  0  0  0  0  0  0  0  0
   -0.3132    3.1075    0.0000 C   0  0  0  0  0  0  0  0  0  0  0  0
   -0.3132    2.2825    0.0000 C   0  0  0  0  0  0  0  0  0  0  0  0
   -1.0277    1.8700    0.0000 C   0  0  0  0  0  0  0  0  0  0  0  0
   -1.7421    2.2825    0.0000 N   0  0  0  0  0  0  0  0  0  0  0  0
    0.4714    2.0276    0.0000 C   0  0  0  0  0  0  0  0  0  0  0  0
    0.9563    2.6950    0.0000 C   0  0  0  0  0  0  0  0  0  0  0  0
    0.4714    3.3625    0.0000 S   0  0  0  0  0  0  0  0  0  0  0  0
    1.7813    2.6950    0.0000 C   0  0  0  0  0  0  0  0  0  0  0  0
    2.1938    3.4095    0.0000 C   0  0  0  0  0  0  0  0  0  0  0  0
   -1.0277    1.0450    0.0000 N   0  0  0  0  0  0  0  0  0  0  0  0
   -0.3132    0.6325    0.0000 C   0  0  0  0  0  0  0  0  0  0  0  0
   -0.3132   -0.1925    0.0000 C   0  0  0  0  0  0  0  0  0  0  0  0
   -1.0277   -0.6050    0.0000 N   0  0  0  0  0  0  0  0  0  0  0  0
   -1.7421   -0.1925    0.0000 C   0  0  0  0  0  0  0  0  0  0  0  0
   -1.7421    0.6325    0.0000 C   0  0  0  0  0  0  0  0  0  0  0  0
   -1.6951   -1.9149    0.0000 S   0  0  0  0  0  0  0  0  0  0  0  0
   -1.0277   -1.4300    0.0000 C   0  0  0  0  0  0  0  0  0  0  0  0
   -0.3602   -1.9149    0.0000 N   0  0  0  0  0  0  0  0  0  0  0  0
   -0.6152   -2.6995    0.0000 C   0  0  0  0  0  0  0  0  0  0  0  0
   -1.4402   -2.6995    0.0000 C   0  0  0  0  0  0  0  0  0  0  0  0
   -1.5264   -3.5200    0.0000 C   0  0  0  0  0  0  0  0  0  0  0  0
   -2.1938   -3.0351    0.0000 C   0  0  0  0  0  0  0  0  0  0  0  0
    2.1938    1.9805    0.0000 C   0  0  0  0  0  0  0  0  0  0  0  0
  1  2  1  0      
  2  3  2  0      
  3  4  1  0      
  4  5  2  0      
  5  6  1  0      
  1  6  2  0      
  7  8  2  0      
  8  9  1  0      
  3  9  1  0      
  4  7  1  0      
 10 11  1  0      
  8 10  1  0      
 12 13  1  0      
 13 14  1  0      
 14 15  1  0      
 15 16  1  0      
 16 17  1  0      
 12 17  1  0      
 18 19  1  0      
 19 20  2  0      
 20 21  1  0      
 21 22  1  0      
 18 22  1  0      
 22 23  1  0      
 22 24  1  0      
 15 19  1  0      
  5 12  1  0      
 10 25  1  0      
M  END

>  <RackCode>
HYCPK72335

>  <Cat. No.>
HY-15223

>  <Product Name>
MI-3

>  <ROW>
O

>  <COLUMN>
7

>  <CAS No.>
1271738-59-0

>  <MWt>
375.55

>  <Target>
Apoptosis; Epigenetic Reader Domain

>  <Saltdate>
Free Base

>  <Smiles>
CC(C)C1=CC2=C(N3CCN(C4=NCC(C)(C)S4)CC3)N=CN=C2S1

>  <Solvent>
DMSO Solution

>  <Batch No.>
06400

>  <Quantity>
10mM  * 50uL

>  <Pathway>
Apoptosis; Epigenetics

>  <Synonyms>
Menin-MLL inhibitor 3

>  <Formula>
C18H25N5S2

>  <Research_Area>
Cancer

>  <Clinical_Information>
No Development Reported

>  <SUPPLIER>
MedChemExpress

$$$$
Untitled Document
  ChemDraw07212213262D

 42 46  0  0  0  0  0  0  0  0999 V2000
   -0.0000   -2.8874    0.0000 O   0  0  0  0  0  0  0  0  0  0  0  0
   -0.0000   -2.0624    0.0000 C   0  0  0  0  0  0  0  0  0  0  0  0
    0.7145   -1.6500    0.0000 N   0  0  0  0  0  0  0  0  0  0  0  0
    1.4289   -2.0624    0.0000 C   0  0  0  0  0  0  0  0  0  0  0  0
    2.1433   -1.6500    0.0000 C   0  0  0  0  0  0  0  0  0  0  0  0
    2.8578   -2.0624    0.0000 C   0  0  0  0  0  0  0  0  0  0  0  0
    2.8578   -2.8874    0.0000 O   0  0  0  0  0  0  0  0  0  0  0  0
    3.5723   -1.6500    0.0000 N   0  0  0  0  0  0  0  0  0  0  0  0
    3.5723   -0.8250    0.0000 C   0  0  0  0  0  0  0  0  0  0  0  0
    2.8578   -0.4125    0.0000 C   0  0  0  0  0  0  0  0  0  0  0  0
    2.1433   -0.8250    0.0000 C   0  0  0  0  0  0  0  0  0  0  0  0
    1.4289   -0.4125    0.0000 C   0  0  0  0  0  0  0  0  0  0  0  0
    4.2867   -0.4125    0.0000 C   0  0  0  0  0  0  0  0  0  0  0  0
   -0.7145   -1.6500    0.0000 C   0  0  0  0  0  0  0  0  0  0  0  0
   -0.7145   -0.8250    0.0000 C   0  0  0  0  0  0  0  0  0  0  0  0
   -1.4289   -0.4125    0.0000 C   0  0  0  0  0  0  0  0  0  0  0  0
   -2.1433   -0.8250    0.0000 C   0  0  0  0  0  0  0  0  0  0  0  0
   -2.1433   -1.6500    0.0000 C   0  0  0  0  0  0  0  0  0  0  0  0
   -1.4289   -2.0624    0.0000 C   0  0  0  0  0  0  0  0  0  0  0  0
   -1.4289   -2.8874    0.0000 C   0  0  0  0  0  0  0  0  0  0  0  0
   -2.8578   -2.0624    0.0000 N   0  0  0  0  0  0  0  0  0  0  0  0
   -3.5723   -1.6500    0.0000 C   0  0  0  0  0  0  0  0  0  0  0  0
   -4.2867   -2.0624    0.0000 C   0  0  0  0  0  0  0  0  0  0  0  0
   -2.8578   -2.8874    0.0000 C   0  0  0  0  0  0  0  0  0  0  0  0
   -3.5723   -3.2999    0.0000 C   0  0  0  0  0  0  0  0  0  0  0  0
   -3.5723   -4.1249    0.0000 C   0  0  0  0  0  0  0  0  0  0  0  0
   -2.8578   -4.5374    0.0000 O   0  0  0  0  0  0  0  0  0  0  0  0
   -2.1433   -4.1249    0.0000 C   0  0  0  0  0  0  0  0  0  0  0  0
   -2.1433   -3.2999    0.0000 C   0  0  0  0  0  0  0  0  0  0  0  0
   -1.4289    0.4125    0.0000 C   0  0  0  0  0  0  0  0  0  0  0  0
   -0.7145    0.8250    0.0000 C   0  0  0  0  0  0  0  0  0  0  0  0
   -0.7145    1.6500    0.0000 C   0  0  0  0  0  0  0  0  0  0  0  0
   -1.4289    2.0624    0.0000 C   0  0  0  0  0  0  0  0  0  0  0  0
   -2.1433    1.6500    0.0000 C   0  0  0  0  0  0  0  0  0  0  0  0
   -2.1433    0.8250    0.0000 C   0  0  0  0  0  0  0  0  0  0  0  0
   -1.4289    2.8874    0.0000 C   0  0  0  0  0  0  0  0  0  0  0  0
   -2.1433    3.2999    0.0000 N   0  0  0  0  0  0  0  0  0  0  0  0
   -2.1433    4.1249    0.0000 C   0  0  0  0  0  0  0  0  0  0  0  0
   -2.8578    4.5374    0.0000 C   0  0  0  0  0  0  0  0  0  0  0  0
   -3.5723    4.1249    0.0000 N   0  0  0  0  0  0  0  0  0  0  0  0
   -3.5723    3.2999    0.0000 C   0  0  0  0  0  0  0  0  0  0  0  0
   -2.8578    2.8874    0.0000 C   0  0  0  0  0  0  0  0  0  0  0  0
  1  2  2  0      
  2  3  1  0      
  3  4  1  0      
  4  5  1  0      
  5  6  1  0      
  6  7  2  0      
  6  8  1  0      
  8  9  1  0      
  9 10  2  0      
 10 11  1  0      
  5 11  2  0      
 11 12  1  0      
  9 13  1  0      
  2 14  1  0      
 14 15  2  0      
 15 16  1  0      
 16 17  2  0      
 17 18  1  0      
 18 19  2  0      
 14 19  1  0      
 19 20  1  0      
 18 21  1  0      
 21 22  1  0      
 22 23  1  0      
 21 24  1  0      
 24 25  1  0      
 25 26  1  0      
 26 27  1  0      
 27 28  1  0      
 28 29  1  0      
 24 29  1  0      
 16 30  1  0      
 30 31  2  0      
 31 32  1  0      
 32 33  2  0      
 33 34  1  0      
 34 35  2  0      
 30 35  1  0      
 33 36  1  0      
 36 37  1  0      
 37 38  1  0      
 38 39  1  0      
 39 40  1  0      
 40 41  1  0      
 41 42  1  0      
 37 42  1  0      
M  END

>  <RackCode>
HYCPK72335

>  <Cat. No.>
HY-147230

>  <Product Name>
EZH2-IN-13

>  <ROW>
P

>  <COLUMN>
7

>  <CAS No.>
1403255-41-3

>  <MWt>
571.75

>  <Target>
Histone Methyltransferase

>  <Saltdate>


>  <Smiles>
O=C(C1=CC(C2=CC=C(CN3CCNCC3)C=C2)=CC(N(C4CCOCC4)CC)=C1C)NCC5=C(C)C=C(C)NC5=O

>  <Solvent>
DMSO Solution

>  <Batch No.>
217484

>  <Quantity>
10mM  * 50uL

>  <Pathway>
Epigenetics

>  <Synonyms>


>  <Formula>
C34H45N5O3

>  <Research_Area>
Cancer

>  <Clinical_Information>
No Development Reported

>  <SUPPLIER>
MedChemExpress

$$$$
Untitled Document
  ChemDraw12191617292D

 21 22  0  0  0  0  0  0  0  0999 V2000
   -2.1442   -0.2062    0.0000 C   0  0  0  0  0  0  0  0  0  0  0  0
   -1.4289    0.2062    0.0000 C   0  0  0  0  0  0  0  0  0  0  0  0
   -0.7145   -0.2062    0.0000 C   0  0  0  0  0  0  0  0  0  0  0  0
   -0.7145   -1.0313    0.0000 C   0  0  0  0  0  0  0  0  0  0  0  0
   -1.4289   -1.4438    0.0000 C   0  0  0  0  0  0  0  0  0  0  0  0
   -2.1442   -1.0313    0.0000 C   0  0  0  0  0  0  0  0  0  0  0  0
   -2.8587    0.2062    0.0000 C   0  0  0  0  0  0  0  0  0  0  0  0
   -2.8587    1.0313    0.0000 O   0  0  0  0  0  0  0  0  0  0  0  0
   -3.5732   -0.2062    0.0000 N   0  0  0  0  0  0  0  0  0  0  0  0
   -0.0000    0.2062    0.0000 C   0  0  0  0  0  0  0  0  0  0  0  0
   -0.0000    1.0313    0.0000 O   0  0  0  0  0  0  0  0  0  0  0  0
    0.7145   -0.2062    0.0000 N   0  0  0  0  0  0  0  0  0  0  0  0
    1.4289    0.2062    0.0000 C   0  0  0  0  0  0  0  0  0  0  0  0
    2.1442   -0.2062    0.0000 C   0  0  0  0  0  0  0  0  0  0  0  0
    2.8587    0.2062    0.0000 C   0  0  0  0  0  0  0  0  0  0  0  0
    2.8587    1.0313    0.0000 C   0  0  0  0  0  0  0  0  0  0  0  0
    3.5732    1.4438    0.0000 C   0  0  0  0  0  0  0  0  0  0  0  0
    4.2876    1.0313    0.0000 C   0  0  0  0  0  0  0  0  0  0  0  0
    4.2876    0.2062    0.0000 C   0  0  0  0  0  0  0  0  0  0  0  0
    3.5732   -0.2062    0.0000 C   0  0  0  0  0  0  0  0  0  0  0  0
   -4.2876    0.2062    0.0000 O   0  0  0  0  0  0  0  0  0  0  0  0
  1  2  1  0      
  2  3  2  0      
  3  4  1  0      
  4  5  2  0      
  5  6  1  0      
  1  6  2  0      
  7  8  2  0      
  7  9  1  0      
  1  7  1  0      
 10 11  2  0      
 10 12  1  0      
  3 10  1  0      
 13 14  1  0      
 15 16  1  0      
 16 17  2  0      
 17 18  1  0      
 18 19  2  0      
 19 20  1  0      
 15 20  2  0      
 14 15  1  0      
 12 13  1  0      
  9 21  1  0      
M  END

>  <RackCode>
HYCPK72335

>  <Cat. No.>
HY-18700

>  <Product Name>
BRD73954

>  <ROW>
A

>  <COLUMN>
8

>  <CAS No.>
1440209-96-0

>  <MWt>
284.31

>  <Target>
HDAC

>  <Saltdate>
Free Base

>  <Smiles>
O=C(C1=CC=CC(C(NCCC2=CC=CC=C2)=O)=C1)NO

>  <Solvent>
DMSO Solution

>  <Batch No.>
17914

>  <Quantity>
10mM  * 50uL

>  <Pathway>
Cell Cycle/DNA Damage; Epigenetics

>  <Synonyms>


>  <Formula>
C16H16N2O3

>  <Research_Area>
Cancer

>  <Clinical_Information>
No Development Reported

>  <SUPPLIER>
MedChemExpress

$$$$
Untitled Document
  ChemDraw09302212512D

 24 26  0  0  0  0  0  0  0  0999 V2000
    0.0797    0.6187    0.0000 C   0  0  0  0  0  0  0  0  0  0  0  0
   -0.6348    0.2062    0.0000 C   0  0  0  0  0  0  0  0  0  0  0  0
    0.0797    1.4437    0.0000 O   0  0  0  0  0  0  0  0  0  0  0  0
    0.7942    0.2062    0.0000 N   0  0  0  0  0  0  0  0  0  0  0  0
   -1.3492    0.6187    0.0000 S   0  0  0  0  0  0  0  0  0  0  0  0
   -2.0636    0.2062    0.0000 C   0  0  0  0  0  0  0  0  0  0  0  0
   -2.0636   -0.6187    0.0000 C   0  0  0  0  0  0  0  0  0  0  0  0
   -2.7781   -1.0313    0.0000 C   0  0  0  0  0  0  0  0  0  0  0  0
   -3.4926   -0.6187    0.0000 C   0  0  0  0  0  0  0  0  0  0  0  0
   -3.4926    0.2062    0.0000 C   0  0  0  0  0  0  0  0  0  0  0  0
   -2.7781    0.6187    0.0000 N   0  0  0  0  0  0  0  0  0  0  0  0
   -4.2070    0.6187    0.0000 C   0  0  0  0  0  0  0  0  0  0  0  0
   -2.7781   -1.8562    0.0000 C   0  0  0  0  0  0  0  0  0  0  0  0
   -1.3492   -1.0313    0.0000 C   0  0  0  0  0  0  0  0  0  0  0  0
   -0.6348   -1.4437    0.0000 N   0  0  0  0  0  0  0  0  0  0  0  0
    3.7221    1.6986    0.0000 O   0  0  0  0  0  0  0  0  0  0  0  0
    4.2070    1.0313    0.0000 C   0  0  0  0  0  0  0  0  0  0  0  0
    3.7221    0.3638    0.0000 O   0  0  0  0  0  0  0  0  0  0  0  0
    2.9375    0.6187    0.0000 C   0  0  0  0  0  0  0  0  0  0  0  0
    2.9375    1.4437    0.0000 C   0  0  0  0  0  0  0  0  0  0  0  0
    2.2230    0.2062    0.0000 C   0  0  0  0  0  0  0  0  0  0  0  0
    1.5086    0.6187    0.0000 C   0  0  0  0  0  0  0  0  0  0  0  0
    1.5086    1.4437    0.0000 C   0  0  0  0  0  0  0  0  0  0  0  0
    2.2230    1.8562    0.0000 C   0  0  0  0  0  0  0  0  0  0  0  0
  1  2  1  0      
  1  3  2  0      
  1  4  1  0      
  6  7  1  0      
  7  8  2  0      
  8  9  1  0      
  9 10  2  0      
 10 11  1  0      
  6 11  2  0      
 10 12  1  0      
  8 13  1  0      
 14 15  3  0      
  7 14  1  0      
  5  6  1  0      
  2  5  1  0      
 16 17  1  0      
 17 18  1  0      
 18 19  1  0      
 19 20  1  0      
 16 20  1  0      
 21 22  1  0      
 22 23  2  0      
 23 24  1  0      
 24 20  2  0      
 21 19  2  0      
  4 22  1  0      
M  END

>  <RackCode>
HYCPK72335

>  <Cat. No.>
HY-151516

>  <Product Name>
microRNA-21-IN-2

>  <ROW>
B

>  <COLUMN>
8

>  <CAS No.>
303018-40-8

>  <MWt>
341.38

>  <Target>
MicroRNA

>  <Saltdate>


>  <Smiles>
O=C(NC1=CC=C(OCO2)C2=C1)CSC3=NC(C)=CC(C)=C3C#N

>  <Solvent>
DMSO Solution

>  <Batch No.>
262238

>  <Quantity>
10mM  * 50uL

>  <Pathway>
Epigenetics

>  <Synonyms>


>  <Formula>
C17H15N3O3S

>  <Research_Area>
Cancer

>  <Clinical_Information>
No Development Reported

>  <SUPPLIER>
MedChemExpress

$$$$
Untitled Document
  ChemDraw09181711032D

 25 27  0  0  0  0  0  0  0  0999 V2000
   -2.8592    0.2615    0.0000 C   0  0  0  0  0  0  0  0  0  0  0  0
   -2.8592   -0.5635    0.0000 C   0  0  0  0  0  0  0  0  0  0  0  0
   -2.1447   -0.9760    0.0000 C   0  0  0  0  0  0  0  0  0  0  0  0
   -1.4302   -0.5635    0.0000 C   0  0  0  0  0  0  0  0  0  0  0  0
   -1.4302    0.2615    0.0000 C   0  0  0  0  0  0  0  0  0  0  0  0
   -2.1447    0.6741    0.0000 C   0  0  0  0  0  0  0  0  0  0  0  0
   -0.7157    0.6741    0.0000 S   0  0  0  0  0  0  0  0  0  0  0  0
   -0.0012    1.0865    0.0000 N   0  0  0  0  0  0  0  0  0  0  0  0
    0.7133   -0.1510    0.0000 C   0  0  0  0  0  0  0  0  0  0  0  0
    1.4278   -0.5635    0.0000 C   0  0  0  0  0  0  0  0  0  0  0  0
    2.1423   -0.1510    0.0000 C   0  0  0  0  0  0  0  0  0  0  0  0
    2.1423    0.6741    0.0000 C   0  0  0  0  0  0  0  0  0  0  0  0
    1.4278    1.0865    0.0000 C   0  0  0  0  0  0  0  0  0  0  0  0
    0.7133    0.6741    0.0000 C   0  0  0  0  0  0  0  0  0  0  0  0
    2.8568   -0.5635    0.0000 N   0  0  0  0  0  0  0  0  0  0  0  0
    3.5713   -0.1510    0.0000 C   0  0  0  0  0  0  0  0  0  0  0  0
    3.5713    0.6741    0.0000 C   0  0  0  0  0  0  0  0  0  0  0  0
    2.8568    1.0865    0.0000 C   0  0  0  0  0  0  0  0  0  0  0  0
   -1.1283    1.3886    0.0000 O   0  0  0  0  0  0  0  0  0  0  0  0
   -0.3032   -0.0404    0.0000 O   0  0  0  0  0  0  0  0  0  0  0  0
    2.8568   -1.3886    0.0000 C   0  0  0  0  0  0  0  0  0  0  0  0
    4.2857   -0.5635    0.0000 O   0  0  0  0  0  0  0  0  0  0  0  0
    4.2857    1.0865    0.0000 C   0  0  0  0  0  0  0  0  0  0  0  0
   -3.5737   -0.9760    0.0000 C   0  0  0  0  0  0  0  0  0  0  0  0
   -4.2857   -1.3871    0.0000 N   0  0  0  0  0  0  0  0  0  0  0  0
  1  2  2  0      
  2  3  1  0      
  3  4  2  0      
  4  5  1  0      
  5  6  2  0      
  6  1  1  0      
  5  7  1  0      
  7  8  1  0      
  9 10  1  0      
 10 11  2  0      
 11 12  1  0      
 12 13  2  0      
 13 14  1  0      
 14  9  2  0      
 11 15  1  0      
 15 16  1  0      
 16 17  1  0      
 17 18  2  0      
 18 12  1  0      
  7 19  2  0      
  7 20  2  0      
 15 21  1  0      
 16 22  2  0      
 17 23  1  0      
 14  8  1  0      
  2 24  1  0      
 24 25  3  0      
M  END

>  <RackCode>
HYCPK72335

>  <Cat. No.>
HY-101121

>  <Product Name>
NI-42

>  <ROW>
C

>  <COLUMN>
8

>  <CAS No.>
1884640-99-6

>  <MWt>
353.40

>  <Target>
Epigenetic Reader Domain

>  <Saltdate>
Free Base

>  <Smiles>
O=S(C1=CC=C(C#N)C=C1)(NC2=CC=C(N(C)C(C(C)=C3)=O)C3=C2)=O

>  <Solvent>
DMSO Solution

>  <Batch No.>
120043

>  <Quantity>
10mM  * 50uL

>  <Pathway>
Epigenetics

>  <Synonyms>


>  <Formula>
C18H15N3O3S

>  <Research_Area>
Cancer

>  <Clinical_Information>
No Development Reported

>  <SUPPLIER>
MedChemExpress

$$$$
Untitled Document
  ChemDraw02271916342D

 29 31  0  0  0  0  0  0  0  0999 V2000
   -2.4957    1.8619    0.0000 C   0  0  0  0  0  0  0  0  0  0  0  0
   -2.4957    1.0369    0.0000 C   0  0  0  0  0  0  0  0  0  0  0  0
   -1.7812    0.6244    0.0000 C   0  0  0  0  0  0  0  0  0  0  0  0
   -1.0667    1.0369    0.0000 C   0  0  0  0  0  0  0  0  0  0  0  0
   -1.0667    1.8619    0.0000 C   0  0  0  0  0  0  0  0  0  0  0  0
   -1.7812    2.2744    0.0000 C   0  0  0  0  0  0  0  0  0  0  0  0
   -0.3548    2.2729    0.0000 O   0  0  0  0  0  0  0  0  0  0  0  0
   -1.7812   -0.1978    0.0000 C   0  0  0  0  0  0  0  0  0  0  0  0
   -2.4957   -0.6103    0.0000 C   0  0  0  0  0  0  0  0  0  0  0  0
   -2.4957   -1.4353    0.0000 C   0  0  0  0  0  0  0  0  0  0  0  0
   -1.7812   -1.8478    0.0000 N   0  0  0  0  0  0  0  0  0  0  0  0
   -1.0667   -1.4353    0.0000 C   0  0  0  0  0  0  0  0  0  0  0  0
   -1.0667   -0.6103    0.0000 N   0  0  0  0  0  0  0  0  0  0  0  0
   -0.3548   -1.8463    0.0000 N   0  0  0  0  0  0  0  0  0  0  0  0
    0.3572   -1.4353    0.0000 C   0  0  0  0  0  0  0  0  0  0  0  0
    1.0717   -1.8478    0.0000 C   0  0  0  0  0  0  0  0  0  0  0  0
    1.7862   -1.4353    0.0000 C   0  0  0  0  0  0  0  0  0  0  0  0
    1.7862   -0.6103    0.0000 C   0  0  0  0  0  0  0  0  0  0  0  0
    1.0717   -0.1978    0.0000 C   0  0  0  0  0  0  0  0  0  0  0  0
    0.3572   -0.6103    0.0000 C   0  0  0  0  0  0  0  0  0  0  0  0
    1.0717    0.6244    0.0000 C   0  0  0  0  0  0  0  0  0  0  0  0
    1.7837    1.0354    0.0000 N   0  0  0  0  0  0  0  0  0  0  0  0
    2.4957    0.6244    0.0000 C   0  0  0  0  0  0  0  0  0  0  0  0
    1.7837    1.8576    0.0000 C   0  0  0  0  0  0  0  0  0  0  0  0
    1.0717    2.2686    0.0000 C   0  0  0  0  0  0  0  0  0  0  0  0
   -0.3548    3.0951    0.0000 C   0  0  0  0  0  0  0  0  0  0  0  0
    0.3597    3.5076    0.0000 C   0  0  0  0  0  0  0  0  0  0  0  0
    1.0742    3.0951    0.0000 C   0  0  0  0  0  0  0  0  0  0  0  0
   -1.0562   -3.5076    0.0000 Cl  0  0  0  0  0  0  0  0  0  0  0  0
  1  2  2  0      
  2  3  1  0      
  3  4  2  0      
  4  5  1  0      
  5  6  2  0      
  6  1  1  0      
  5  7  1  0      
  3  8  1  0      
  8  9  2  0      
  9 10  1  0      
 10 11  2  0      
 11 12  1  0      
 12 13  2  0      
 13  8  1  0      
 12 14  1  0      
 14 15  1  0      
 15 16  2  0      
 16 17  1  0      
 17 18  2  0      
 18 19  1  0      
 19 20  2  0      
 20 15  1  0      
 19 21  1  0      
 21 22  1  0      
 22 23  1  0      
 22 24  1  0      
 24 25  1  0      
  7 26  1  0      
 26 27  1  0      
 27 28  1  0      
 28 25  2  0      
M  END

>  <RackCode>
HYCPK72335

>  <Cat. No.>
HY-15166A

>  <Product Name>
(E/Z)-Zotiraciclib (hydrochloride)

>  <ROW>
D

>  <COLUMN>
8

>  <CAS No.>
1321626-25-8

>  <MWt>
408.92

>  <Target>
CDK; FLT3; JAK

>  <Saltdate>
Hydrochloride

>  <Smiles>
CN1CC2=CC(NC3=NC(C4=CC(OCC/C=C/C1)=CC=C4)=CC=N3)=CC=C2.Cl

>  <Solvent>
DMSO Solution

>  <Batch No.>
116598

>  <Quantity>
10mM  * 50uL

>  <Pathway>
Cell Cycle/DNA Damage; Epigenetics; JAK/STAT Signaling; Protein Tyrosine Kinase/RTK; Stem Cell/Wnt

>  <Synonyms>
(E/Z)-TG02 (hydrochloride); (E/Z)-SB1317 (hydrochloride)

>  <Formula>
C23H25ClN4O

>  <Research_Area>
Cancer

>  <Clinical_Information>
No Development Reported

>  <SUPPLIER>
MedChemExpress

$$$$
Untitled Document
  ChemDraw11081611302D

 46 51  0  0  0  0  0  0  0  0999 V2000
   -1.3534   -1.3706    0.0000 N   0  0  0  0  0  0  0  0  0  0  0  0
   -2.0678   -0.9581    0.0000 C   0  0  0  0  0  0  0  0  0  0  0  0
   -2.0678   -0.1331    0.0000 N   0  0  0  0  0  0  0  0  0  0  0  0
   -1.3534    0.2794    0.0000 C   0  0  0  0  0  0  0  0  0  0  0  0
   -0.6390   -0.1331    0.0000 C   0  0  0  0  0  0  0  0  0  0  0  0
    0.0755    0.2794    0.0000 C   0  0  0  0  0  0  0  0  0  0  0  0
    0.7900   -0.1331    0.0000 C   0  0  0  0  0  0  0  0  0  0  0  0
    0.7900   -0.9581    0.0000 C   0  0  0  0  0  0  0  0  0  0  0  0
    0.0755   -1.3706    0.0000 C   0  0  0  0  0  0  0  0  0  0  0  0
   -0.6390   -0.9581    0.0000 C   0  0  0  0  0  0  0  0  0  0  0  0
   -1.3534    1.1044    0.0000 N   0  0  0  0  0  0  0  0  0  0  0  0
    1.5045   -1.3706    0.0000 O   0  0  0  0  0  0  0  0  0  0  0  0
    2.2188   -0.9581    0.0000 C   0  0  0  0  0  0  0  0  0  0  0  0
    2.9333   -1.3706    0.0000 C   0  0  0  0  0  0  0  0  0  0  0  0
    3.6478   -0.9581    0.0000 C   0  0  0  0  0  0  0  0  0  0  0  0
    4.3622   -1.3706    0.0000 N   0  0  0  0  0  0  0  0  0  0  0  0
    5.0767   -0.9581    0.0000 C   0  0  0  0  0  0  0  0  0  0  0  0
    5.7911   -1.3706    0.0000 C   0  0  0  0  0  0  0  0  0  0  0  0
    5.7911   -2.1955    0.0000 C   0  0  0  0  0  0  0  0  0  0  0  0
    5.0767   -2.6080    0.0000 C   0  0  0  0  0  0  0  0  0  0  0  0
    4.3622   -2.1955    0.0000 C   0  0  0  0  0  0  0  0  0  0  0  0
    1.5045    0.2794    0.0000 O   0  0  0  0  0  0  0  0  0  0  0  0
    2.2188   -0.1331    0.0000 C   0  0  0  0  0  0  0  0  0  0  0  0
   -2.7823   -1.3706    0.0000 N   0  0  0  0  0  0  0  0  0  0  0  0
   -3.4639   -0.9058    0.0000 C   0  0  0  0  0  0  0  0  0  0  0  0
   -4.2523   -1.1490    0.0000 C   0  0  0  0  0  0  0  0  0  0  0  0
   -4.5537   -1.9169    0.0000 N   0  0  0  0  0  0  0  0  0  0  0  0
   -4.1412   -2.6314    0.0000 C   0  0  0  0  0  0  0  0  0  0  0  0
   -3.3254   -2.7543    0.0000 C   0  0  0  0  0  0  0  0  0  0  0  0
   -2.7206   -2.1932    0.0000 C   0  0  0  0  0  0  0  0  0  0  0  0
   -5.3786   -1.9169    0.0000 C   0  0  0  0  0  0  0  0  0  0  0  0
   -5.7911   -1.2025    0.0000 C   0  0  0  0  0  0  0  0  0  0  0  0
   -5.7911   -2.6314    0.0000 C   0  0  0  0  0  0  0  0  0  0  0  0
    0.7900    2.3418    0.0000 N   0  0  0  0  0  0  0  0  0  0  0  0
    0.7900    1.5169    0.0000 C   0  0  0  0  0  0  0  0  0  0  0  0
    0.0755    1.1044    0.0000 C   0  0  0  0  0  0  0  0  0  0  0  0
   -0.6390    1.5169    0.0000 C   0  0  0  0  0  0  0  0  0  0  0  0
   -0.6390    2.3418    0.0000 C   0  0  0  0  0  0  0  0  0  0  0  0
    0.0755    2.7543    0.0000 C   0  0  0  0  0  0  0  0  0  0  0  0
    1.5045    2.7543    0.0000 C   0  0  0  0  0  0  0  0  0  0  0  0
    2.2188    2.3418    0.0000 C   0  0  0  0  0  0  0  0  0  0  0  0
    2.9333    2.7543    0.0000 C   0  0  0  0  0  0  0  0  0  0  0  0
    3.6478    2.3418    0.0000 C   0  0  0  0  0  0  0  0  0  0  0  0
    3.6478    1.5169    0.0000 C   0  0  0  0  0  0  0  0  0  0  0  0
    2.9333    1.1044    0.0000 C   0  0  0  0  0  0  0  0  0  0  0  0
    2.2188    1.5169    0.0000 C   0  0  0  0  0  0  0  0  0  0  0  0
  1  2  1  0      
  2  3  2  0      
  3  4  1  0      
  4  5  2  0      
  5  6  1  0      
  6  7  2  0      
  7  8  1  0      
  8  9  2  0      
  9 10  1  0      
  1 10  2  0      
  5 10  1  0      
  4 11  1  0      
 13 14  1  0      
 14 15  1  0      
 12 13  1  0      
 16 17  1  0      
 17 18  1  0      
 18 19  1  0      
 19 20  1  0      
 20 21  1  0      
 16 21  1  0      
 15 16  1  0      
  8 12  1  0      
 22 23  1  0      
  7 22  1  0      
 24 25  1  0      
 25 26  1  0      
 26 27  1  0      
 27 28  1  0      
 28 29  1  0      
 29 30  1  0      
 24 30  1  0      
 31 32  1  0      
 31 33  1  0      
 27 31  1  0      
  2 24  1  0      
 34 35  1  0      
 35 36  1  0      
 36 37  1  0      
 37 38  1  0      
 38 39  1  0      
 34 39  1  0      
 41 42  1  0      
 42 43  1  0      
 43 44  1  0      
 44 45  1  0      
 45 46  1  0      
 41 46  1  0      
 40 41  1  0      
 34 40  1  0      
 11 37  1  0      
M  END

>  <RackCode>
HYCPK72335

>  <Cat. No.>
HY-13808

>  <Product Name>
UNC 0631

>  <ROW>
E

>  <COLUMN>
8

>  <CAS No.>
1320288-19-4

>  <MWt>
635.93

>  <Target>
Histone Methyltransferase

>  <Saltdate>
Free Base

>  <Smiles>
COC1=CC2=C(NC3CCN(CC4CCCCC4)CC3)N=C(N5CCN(C(C)C)CCC5)N=C2C=C1OCCCN6CCCCC6

>  <Solvent>
DMSO Solution

>  <Batch No.>
11414

>  <Quantity>
10mM  * 50uL

>  <Pathway>
Epigenetics

>  <Synonyms>


>  <Formula>
C37H61N7O2

>  <Research_Area>
Cancer

>  <Clinical_Information>
No Development Reported

>  <SUPPLIER>
MedChemExpress

$$$$
Untitled Document
  ChemDraw11051814172D

 27 29  0  0  0  0  0  0  0  0999 V2000
    1.0805    0.0063    0.0000 N   0  0  0  0  0  0  0  0  0  0  0  0
    0.6680    0.7207    0.0000 N   0  0  0  0  0  0  0  0  0  0  0  0
   -0.1390    0.5492    0.0000 N   0  0  0  0  0  0  0  0  0  0  0  0
   -0.2252   -0.2713    0.0000 C   0  0  0  0  0  0  0  0  0  0  0  0
    0.5284   -0.6068    0.0000 C   0  0  0  0  0  0  0  0  0  0  0  0
   -0.9397   -0.6838    0.0000 C   0  0  0  0  0  0  0  0  0  0  0  0
   -0.9397   -1.5088    0.0000 C   0  0  0  0  0  0  0  0  0  0  0  0
   -1.6542   -1.9213    0.0000 C   0  0  0  0  0  0  0  0  0  0  0  0
   -2.3687   -1.5088    0.0000 C   0  0  0  0  0  0  0  0  0  0  0  0
   -2.3687   -0.6838    0.0000 C   0  0  0  0  0  0  0  0  0  0  0  0
   -1.6542   -0.2713    0.0000 C   0  0  0  0  0  0  0  0  0  0  0  0
   -3.0831   -1.9213    0.0000 O   0  0  0  0  0  0  0  0  0  0  0  0
   -3.7976   -1.5088    0.0000 C   0  0  0  0  0  0  0  0  0  0  0  0
   -3.7976   -0.6838    0.0000 F   0  0  0  0  0  0  0  0  0  0  0  0
   -4.5121   -1.0963    0.0000 F   0  0  0  0  0  0  0  0  0  0  0  0
   -4.5121   -1.9213    0.0000 F   0  0  0  0  0  0  0  0  0  0  0  0
    1.9010   -0.0800    0.0000 C   0  0  0  0  0  0  0  0  0  0  0  0
    2.3859    0.5875    0.0000 C   0  0  0  0  0  0  0  0  0  0  0  0
    4.4258   -0.0417    0.0000 O   0  0  0  0  0  0  0  0  0  0  0  0
    4.5121    0.7788    0.0000 N   0  0  0  0  0  0  0  0  0  0  0  0
    3.7584    1.1143    0.0000 C   0  0  0  0  0  0  0  0  0  0  0  0
    3.2064    0.5012    0.0000 C   0  0  0  0  0  0  0  0  0  0  0  0
    3.6189   -0.2133    0.0000 C   0  0  0  0  0  0  0  0  0  0  0  0
    3.2833   -0.9669    0.0000 C   0  0  0  0  0  0  0  0  0  0  0  0
    3.5869    1.9213    0.0000 C   0  0  0  0  0  0  0  0  0  0  0  0
    0.7000   -1.4138    0.0000 C   0  0  0  0  0  0  0  0  0  0  0  0
    1.4846   -1.6688    0.0000 Cl  0  0  0  0  0  0  0  0  0  0  0  0
  1  2  1  0      
  2  3  2  0      
  3  4  1  0      
  4  5  2  0      
  1  5  1  0      
  6  7  1  0      
  7  8  2  0      
  8  9  1  0      
  9 10  2  0      
 10 11  1  0      
  6 11  2  0      
 12 13  1  0      
 13 14  1  0      
 13 15  1  0      
 13 16  1  0      
  9 12  1  0      
  4  6  1  0      
 17 18  1  0      
 19 20  1  0      
 20 21  2  0      
 21 22  1  0      
 22 23  2  0      
 19 23  1  0      
 23 24  1  0      
 21 25  1  0      
 18 22  1  0      
  1 17  1  0      
 26 27  1  0      
  5 26  1  0      
M  END

>  <RackCode>
HYCPK72335

>  <Cat. No.>
HY-119390

>  <Product Name>
AA-CW236

>  <ROW>
F

>  <COLUMN>
8

>  <CAS No.>
1869921-96-9

>  <MWt>
400.78

>  <Target>
DNA Methyltransferase

>  <Saltdate>


>  <Smiles>
FC(F)(F)OC1=CC=C(C2=C(CCl)N(CCC3=C(C)ON=C3C)N=N2)C=C1

>  <Solvent>
DMSO Solution

>  <Batch No.>
385824

>  <Quantity>
10mM  * 50uL

>  <Pathway>
Epigenetics

>  <Synonyms>


>  <Formula>
C17H16ClF3N4O2

>  <Research_Area>
Cancer

>  <Clinical_Information>
No Development Reported

>  <SUPPLIER>
MedChemExpress

$$$$
Untitled Document
  ChemDraw08311709442D

 22 24  0  0  0  0  0  0  0  0999 V2000
   -0.2956    0.1387    0.0000 C   0  0  0  0  0  0  0  0  0  0  0  0
    0.4189    0.5512    0.0000 C   0  0  0  0  0  0  0  0  0  0  0  0
    1.1333    0.1387    0.0000 C   0  0  0  0  0  0  0  0  0  0  0  0
    1.1333   -0.6863    0.0000 C   0  0  0  0  0  0  0  0  0  0  0  0
    0.4189   -1.0988    0.0000 C   0  0  0  0  0  0  0  0  0  0  0  0
   -0.2956   -0.6863    0.0000 C   0  0  0  0  0  0  0  0  0  0  0  0
   -1.0101    0.5512    0.0000 C   0  0  0  0  0  0  0  0  0  0  0  0
   -1.0101    1.3762    0.0000 O   0  0  0  0  0  0  0  0  0  0  0  0
   -1.7246    0.1387    0.0000 C   0  0  0  0  0  0  0  0  0  0  0  0
   -1.7246   -0.6863    0.0000 C   0  0  0  0  0  0  0  0  0  0  0  0
   -2.4390   -1.0988    0.0000 C   0  0  0  0  0  0  0  0  0  0  0  0
   -3.1535   -0.6863    0.0000 C   0  0  0  0  0  0  0  0  0  0  0  0
   -3.1535    0.1387    0.0000 C   0  0  0  0  0  0  0  0  0  0  0  0
   -2.4390    0.5512    0.0000 C   0  0  0  0  0  0  0  0  0  0  0  0
    0.4189   -1.9238    0.0000 O   0  0  0  0  0  0  0  0  0  0  0  0
    2.7410    1.5433    0.0000 O   0  0  0  0  0  0  0  0  0  0  0  0
    3.1535    0.8288    0.0000 N   0  0  0  0  0  0  0  0  0  0  0  0
    2.6015    0.2157    0.0000 C   0  0  0  0  0  0  0  0  0  0  0  0
    1.8478    0.5512    0.0000 C   0  0  0  0  0  0  0  0  0  0  0  0
    1.9340    1.3717    0.0000 C   0  0  0  0  0  0  0  0  0  0  0  0
    1.3209    1.9238    0.0000 C   0  0  0  0  0  0  0  0  0  0  0  0
    2.7730   -0.5913    0.0000 C   0  0  0  0  0  0  0  0  0  0  0  0
  1  2  1  0      
  2  3  2  0      
  3  4  1  0      
  4  5  2  0      
  5  6  1  0      
  1  6  2  0      
  7  8  1  0      
  1  7  1  0      
  9 10  1  0      
 10 11  2  0      
 11 12  1  0      
 12 13  2  0      
 13 14  1  0      
  9 14  2  0      
  7  9  1  0      
  5 15  1  0      
 16 17  1  0      
 17 18  2  0      
 18 19  1  0      
 19 20  2  0      
 16 20  1  0      
 20 21  1  0      
 18 22  1  0      
  3 19  1  0      
M  END

>  <RackCode>
HYCPK72335

>  <Cat. No.>
HY-103297

>  <Product Name>
OXFBD02

>  <ROW>
G

>  <COLUMN>
8

>  <CAS No.>
1429129-68-9

>  <MWt>
295.33

>  <Target>
Epigenetic Reader Domain

>  <Saltdate>


>  <Smiles>
OC(C1=CC=CC=C1)C2=CC(O)=CC(C3=C(C)ON=C3C)=C2

>  <Solvent>
DMSO Solution

>  <Batch No.>
408776

>  <Quantity>
10mM  * 50uL

>  <Pathway>
Epigenetics

>  <Synonyms>


>  <Formula>
C18H17NO3

>  <Research_Area>
Cancer

>  <Clinical_Information>
No Development Reported

>  <SUPPLIER>
MedChemExpress

$$$$
Untitled Document
  ChemDraw09201614362D

 36 38  0  0  0  0  0  0  0  0999 V2000
    2.8578    0.9913    0.0000 C   0  0  0  0  0  0  0  0  0  0  0  0
    3.5723    0.5788    0.0000 N   0  0  0  0  0  0  0  0  0  0  0  0
    3.5723   -0.2462    0.0000 C   0  0  0  0  0  0  0  0  0  0  0  0
    2.8578   -0.6587    0.0000 C   0  0  0  0  0  0  0  0  0  0  0  0
    2.1433   -0.2462    0.0000 C   0  0  0  0  0  0  0  0  0  0  0  0
    1.4289   -0.6587    0.0000 C   0  0  0  0  0  0  0  0  0  0  0  0
    0.7145   -0.2462    0.0000 C   0  0  0  0  0  0  0  0  0  0  0  0
    0.7145    0.5788    0.0000 C   0  0  0  0  0  0  0  0  0  0  0  0
    1.4289    0.9913    0.0000 C   0  0  0  0  0  0  0  0  0  0  0  0
    2.1433    0.5788    0.0000 C   0  0  0  0  0  0  0  0  0  0  0  0
   -0.0000   -0.6587    0.0000 S   0  0  0  0  0  0  0  0  0  0  0  0
   -0.4125    0.0558    0.0000 O   0  0  0  0  0  0  0  0  0  0  0  0
    0.4125   -1.3732    0.0000 O   0  0  0  0  0  0  0  0  0  0  0  0
   -0.7145   -1.0712    0.0000 N   0  0  0  0  0  0  0  0  0  0  0  0
   -1.4289   -0.6587    0.0000 C   0  0  0  0  0  0  0  0  0  0  0  0
   -2.1433   -1.0712    0.0000 C   0  0  0  0  0  0  0  0  0  0  0  0
   -1.4289    0.1663    0.0000 C   0  0  0  0  0  0  0  0  0  0  0  0
   -2.1433    0.5788    0.0000 C   0  0  0  0  0  0  0  0  0  0  0  0
   -2.1433    1.4038    0.0000 C   0  0  0  0  0  0  0  0  0  0  0  0
   -2.8578    1.8162    0.0000 C   0  0  0  0  0  0  0  0  0  0  0  0
   -3.5723    1.4038    0.0000 C   0  0  0  0  0  0  0  0  0  0  0  0
   -3.5723    0.5788    0.0000 C   0  0  0  0  0  0  0  0  0  0  0  0
   -2.8578    0.1663    0.0000 C   0  0  0  0  0  0  0  0  0  0  0  0
   -2.8578    2.6412    0.0000 C   0  0  0  0  0  0  0  0  0  0  0  0
   -2.8578    3.4662    0.0000 F   0  0  0  0  0  0  0  0  0  0  0  0
   -2.1433    3.0537    0.0000 F   0  0  0  0  0  0  0  0  0  0  0  0
   -3.5723    3.0537    0.0000 F   0  0  0  0  0  0  0  0  0  0  0  0
   -2.1433   -1.8962    0.0000 N   0  0  0  0  0  0  0  0  0  0  0  0
   -1.4760   -2.3810    0.0000 C   0  0  0  0  0  0  0  0  0  0  0  0
   -1.7309   -3.1656    0.0000 C   0  0  0  0  0  0  0  0  0  0  0  0
   -2.5558   -3.1656    0.0000 C   0  0  0  0  0  0  0  0  0  0  0  0
   -2.8108   -2.3810    0.0000 C   0  0  0  0  0  0  0  0  0  0  0  0
   -2.8578   -0.6587    0.0000 O   0  0  0  0  0  0  0  0  0  0  0  0
    1.4289    1.8162    0.0000 F   0  0  0  0  0  0  0  0  0  0  0  0
   -0.0020   -3.4662    0.0000 H   0  0  0  0  0  0  0  0  0  0  0  0
    0.8229   -3.4615    0.0000 Cl  0  0  0  0  0  0  0  0  0  0  0  0
  1  2  1  0      
  2  3  1  0      
  3  4  1  0      
  4  5  1  0      
  5  6  1  0      
  6  7  2  0      
  7  8  1  0      
  8  9  2  0      
  9 10  1  0      
  1 10  1  0      
  5 10  2  0      
 11 12  2  0      
 11 13  2  0      
 11 14  1  0      
  7 11  1  0      
 15 16  1  0      
 18 19  1  0      
 19 20  2  0      
 20 21  1  0      
 21 22  2  0      
 22 23  1  0      
 18 23  2  0      
 24 25  1  0      
 24 26  1  0      
 24 27  1  0      
 20 24  1  0      
 17 18  1  0      
 15 17  1  0      
 28 29  1  0      
 29 30  1  0      
 30 31  1  0      
 31 32  1  0      
 28 32  1  0      
 16 28  1  0      
 16 33  2  0      
 15 14  1  1      
  9 34  1  0      
 35 36  1  0      
M  END

>  <RackCode>
HYCPK72335

>  <Cat. No.>
HY-18627A

>  <Product Name>
PFI-2 (hydrochloride)

>  <ROW>
H

>  <COLUMN>
8

>  <CAS No.>
1627607-87-7

>  <MWt>
535.98

>  <Target>
Histone Methyltransferase

>  <Saltdate>
Hydrochloride

>  <Smiles>
O=S(C1=CC2=C(CNCC2)C(F)=C1)(N[C@H](CC3=CC=CC(C(F)(F)F)=C3)C(N4CCCC4)=O)=O.[H]Cl

>  <Solvent>
DMSO Solution

>  <Batch No.>
27530

>  <Quantity>
10mM  * 50uL

>  <Pathway>
Epigenetics

>  <Synonyms>
(R)-PFI-2 hydrochloride

>  <Formula>
C23H26ClF4N3O3S

>  <Research_Area>
Cancer; Infection; Inflammation/Immunology

>  <Clinical_Information>
No Development Reported

>  <SUPPLIER>
MedChemExpress

$$$$
Untitled Document
  ChemDraw05262117142D

 36 38  0  0  0  0  0  0  0  0999 V2000
    1.7861   -1.6500    0.0000 C   0  0  0  0  0  0  0  0  0  0  0  0
    1.0717   -2.0624    0.0000 N   0  0  0  0  0  0  0  0  0  0  0  0
    1.7861   -0.8250    0.0000 O   0  0  0  0  0  0  0  0  0  0  0  0
    2.5005   -2.0624    0.0000 O   0  0  0  0  0  0  0  0  0  0  0  0
    0.3572   -1.6500    0.0000 C   0  0  0  0  0  0  0  0  0  0  0  0
   -0.3572   -2.0624    0.0000 C   0  0  0  0  0  0  0  0  0  0  0  0
   -1.0717   -1.6500    0.0000 C   0  0  0  0  0  0  0  0  0  0  0  0
   -1.7861   -2.0624    0.0000 C   0  0  0  0  0  0  0  0  0  0  0  0
   -2.5005   -1.6500    0.0000 C   0  0  0  0  0  0  0  0  0  0  0  0
   -3.2150   -2.0624    0.0000 N   0  0  0  0  0  0  0  0  0  0  0  0
   -3.9295   -1.6500    0.0000 C   0  0  0  0  0  0  0  0  0  0  0  0
   -4.6440   -2.0624    0.0000 C   0  0  0  0  0  0  0  0  0  0  0  0
   -5.3583   -1.6500    0.0000 C   0  0  0  0  0  0  0  0  0  0  0  0
   -3.9295   -0.8250    0.0000 O   0  0  0  0  0  0  0  0  0  0  0  0
    0.3572   -0.8250    0.0000 C   0  0  0  0  0  0  0  0  0  0  0  0
   -0.3572   -0.4125    0.0000 O   0  0  0  0  0  0  0  0  0  0  0  0
    1.0717   -0.4125    0.0000 N   0  0  0  0  0  0  0  0  0  0  0  0
    2.5005    2.8874    0.0000 C   0  0  0  0  0  0  0  0  0  0  0  0
    1.7861    3.2999    0.0000 C   0  0  0  0  0  0  0  0  0  0  0  0
    1.0717    2.8874    0.0000 C   0  0  0  0  0  0  0  0  0  0  0  0
    1.0717    2.0624    0.0000 C   0  0  0  0  0  0  0  0  0  0  0  0
    1.7861    1.6500    0.0000 C   0  0  0  0  0  0  0  0  0  0  0  0
    2.5005    2.0624    0.0000 O   0  0  0  0  0  0  0  0  0  0  0  0
    1.7861    0.8250    0.0000 C   0  0  0  0  0  0  0  0  0  0  0  0
    1.0717    0.4125    0.0000 C   0  0  0  0  0  0  0  0  0  0  0  0
    0.3572    0.8250    0.0000 C   0  0  0  0  0  0  0  0  0  0  0  0
    0.3572    1.6500    0.0000 C   0  0  0  0  0  0  0  0  0  0  0  0
    3.2150    3.2999    0.0000 O   0  0  0  0  0  0  0  0  0  0  0  0
    0.3572    3.2999    0.0000 C   0  0  0  0  0  0  0  0  0  0  0  0
    3.2150   -1.6500    0.0000 C   0  0  0  0  0  0  0  0  0  0  0  0
    3.9295   -2.0624    0.0000 C   0  0  0  0  0  0  0  0  0  0  0  0
    4.6440   -1.6500    0.0000 C   0  0  0  0  0  0  0  0  0  0  0  0
    5.3583   -2.0624    0.0000 C   0  0  0  0  0  0  0  0  0  0  0  0
    5.3583   -2.8874    0.0000 C   0  0  0  0  0  0  0  0  0  0  0  0
    4.6440   -3.2999    0.0000 C   0  0  0  0  0  0  0  0  0  0  0  0
    3.9295   -2.8874    0.0000 C   0  0  0  0  0  0  0  0  0  0  0  0
  1  2  1  0      
  1  3  2  0      
  1  4  1  0      
  5  6  1  0      
  6  7  1  0      
  7  8  1  0      
  8  9  1  0      
 11 12  1  0      
 12 13  1  0      
 11 14  2  0      
 10 11  1  0      
  9 10  1  0      
 15 16  2  0      
 18 19  1  0      
 19 20  2  0      
 20 21  1  0      
 21 22  1  0      
 22 23  1  0      
 18 23  1  0      
 24 25  1  0      
 25 26  2  0      
 26 27  1  0      
 27 21  2  0      
 24 22  2  0      
 18 28  2  0      
 20 29  1  0      
 17 25  1  0      
 15 17  1  0      
  5 15  1  1      
  2  5  1  0      
 31 32  1  0      
 32 33  2  0      
 33 34  1  0      
 34 35  2  0      
 35 36  1  0      
 31 36  2  0      
 30 31  1  0      
  4 30  1  0      
M  END

>  <RackCode>
HYCPK72335

>  <Cat. No.>
HY-141427

>  <Product Name>
MOCPAC

>  <ROW>
I

>  <COLUMN>
8

>  <CAS No.>
787549-26-2

>  <MWt>
493.55

>  <Target>
HDAC

>  <Saltdate>


>  <Smiles>
O=C(OCC1=CC=CC=C1)N[C@H](C(NC2=CC=C(C(O3)=C2)C(C)=CC3=O)=O)CCCCNC(CC)=O

>  <Solvent>
DMSO Solution

>  <Batch No.>
264008

>  <Quantity>
10mM  * 50uL

>  <Pathway>
Cell Cycle/DNA Damage; Epigenetics

>  <Synonyms>


>  <Formula>
C27H31N3O6

>  <Research_Area>
Cancer

>  <Clinical_Information>
No Development Reported

>  <SUPPLIER>
MedChemExpress

$$$$
Untitled Document
  ChemDraw09152214332D

 21 23  0  0  0  0  0  0  0  0999 V2000
   -2.3111   -1.7335    0.0000 O   0  0  0  0  0  0  0  0  0  0  0  0
   -1.5042   -1.5620    0.0000 N   0  0  0  0  0  0  0  0  0  0  0  0
   -1.4180   -0.7415    0.0000 C   0  0  0  0  0  0  0  0  0  0  0  0
   -2.1715   -0.4059    0.0000 C   0  0  0  0  0  0  0  0  0  0  0  0
   -2.7236   -1.0190    0.0000 C   0  0  0  0  0  0  0  0  0  0  0  0
   -0.7035   -0.3290    0.0000 C   0  0  0  0  0  0  0  0  0  0  0  0
   -0.7035    0.4960    0.0000 O   0  0  0  0  0  0  0  0  0  0  0  0
    0.0110   -0.7415    0.0000 N   0  0  0  0  0  0  0  0  0  0  0  0
   -3.5440   -0.9328    0.0000 C   0  0  0  0  0  0  0  0  0  0  0  0
   -4.2977   -1.2684    0.0000 C   0  0  0  0  0  0  0  0  0  0  0  0
   -4.2115   -0.4479    0.0000 C   0  0  0  0  0  0  0  0  0  0  0  0
    2.1543    0.4960    0.0000 N   0  0  0  0  0  0  0  0  0  0  0  0
    2.1543   -0.3290    0.0000 C   0  0  0  0  0  0  0  0  0  0  0  0
    1.4399   -0.7415    0.0000 C   0  0  0  0  0  0  0  0  0  0  0  0
    0.7255   -0.3290    0.0000 C   0  0  0  0  0  0  0  0  0  0  0  0
    0.7255    0.4960    0.0000 C   0  0  0  0  0  0  0  0  0  0  0  0
    1.4399    0.9085    0.0000 C   0  0  0  0  0  0  0  0  0  0  0  0
    2.8688    0.9085    0.0000 C   0  0  0  0  0  0  0  0  0  0  0  0
    2.8688    1.7335    0.0000 O   0  0  0  0  0  0  0  0  0  0  0  0
    3.5832    0.4960    0.0000 C   0  0  0  0  0  0  0  0  0  0  0  0
    4.2977    0.9085    0.0000 Cl  0  0  0  0  0  0  0  0  0  0  0  0
  1  2  1  0      
  2  3  2  0      
  3  4  1  0      
  4  5  2  0      
  1  5  1  0      
  6  7  2  0      
  6  8  1  0      
  3  6  1  0      
  9 10  1  0      
 10 11  1  0      
  9 11  1  0      
  5  9  1  0      
 12 13  1  0      
 13 14  1  0      
 14 15  1  0      
 15 16  1  0      
 16 17  1  0      
 12 17  1  0      
 18 19  2  0      
 18 20  1  0      
 20 21  1  0      
 12 18  1  0      
  8 15  1  0      
M  END

>  <RackCode>
HYCPK72335

>  <Cat. No.>
HY-151379

>  <Product Name>
EM127

>  <ROW>
J

>  <COLUMN>
8

>  <CAS No.>
1886879-71-5

>  <MWt>
311.76

>  <Target>
Histone Methyltransferase

>  <Saltdate>


>  <Smiles>
O=C(C1=NOC(C2CC2)=C1)NC3CCN(C(CCl)=O)CC3

>  <Solvent>
DMSO Solution

>  <Batch No.>
260379

>  <Quantity>
10mM  * 50uL

>  <Pathway>
Epigenetics

>  <Synonyms>


>  <Formula>
C14H18ClN3O3

>  <Research_Area>
Cancer

>  <Clinical_Information>
No Development Reported

>  <SUPPLIER>
MedChemExpress

$$$$
Untitled Document
  ChemDraw11072217052D

 22 24  0  0  0  0  0  0  0  0999 V2000
   -1.5594   -0.4979    0.0000 C   0  0  0  0  0  0  0  0  0  0  0  0
   -2.2733   -0.0843    0.0000 O   0  0  0  0  0  0  0  0  0  0  0  0
    0.0063   -0.2529    0.0000 N   0  0  0  0  0  0  0  0  0  0  0  0
    0.8032   -0.0394    0.0000 C   0  0  0  0  0  0  0  0  0  0  0  0
    0.8463    0.7845    0.0000 C   0  0  0  0  0  0  0  0  0  0  0  0
    0.0761    1.0802    0.0000 C   0  0  0  0  0  0  0  0  0  0  0  0
   -0.4431    0.4390    0.0000 C   0  0  0  0  0  0  0  0  0  0  0  0
    1.4951   -0.4887    0.0000 N   0  0  0  0  0  0  0  0  0  0  0  0
    2.2301   -0.1142    0.0000 C   0  0  0  0  0  0  0  0  0  0  0  0
    2.2733    0.7097    0.0000 N   0  0  0  0  0  0  0  0  0  0  0  0
    1.5814    1.1590    0.0000 C   0  0  0  0  0  0  0  0  0  0  0  0
   -0.1374    1.8770    0.0000 C   0  0  0  0  0  0  0  0  0  0  0  0
    0.4460    2.4604    0.0000 O   0  0  0  0  0  0  0  0  0  0  0  0
   -0.9343    2.0906    0.0000 N   0  0  0  0  0  0  0  0  0  0  0  0
    1.5814    1.9840    0.0000 N   0  0  0  0  0  0  0  0  0  0  0  0
   -0.2614   -1.6354    0.0000 C   0  0  0  0  0  0  0  0  0  0  0  0
   -1.2548   -1.6275    0.0000 C   0  0  0  0  0  0  0  0  0  0  0  0
   -1.5594   -1.3229    0.0000 C   0  0  0  0  0  0  0  0  0  0  0  0
   -0.7530   -1.1432    0.0000 O   0  0  0  0  0  0  0  0  0  0  0  0
    0.0492   -1.3357    0.0000 C   0  0  0  0  0  0  0  0  0  0  0  0
   -1.2548   -2.4525    0.0000 O   0  0  0  0  0  0  0  0  0  0  0  0
   -0.2614   -2.4604    0.0000 O   0  0  0  0  0  0  0  0  0  0  0  0
  1  2  1  0      
  1 18  1  0      
  3  4  1  0      
  5  6  1  0      
  6  7  2  0      
  7  3  1  0      
  4  5  1  0      
  4  8  2  0      
  9 10  2  0      
 11  5  2  0      
  9  8  1  0      
 10 11  1  0      
  6 12  1  0      
 12 13  2  0      
 12 14  1  0      
 11 15  1  0      
 16 17  1  1      
 18 17  1  1      
 18 19  1  0      
 19 20  1  0      
 20 16  1  1      
  3 20  1  0      
 17 21  1  0      
 16 22  1  0      
M  END

>  <RackCode>
HYCPK72335

>  <Cat. No.>
HY-118384

>  <Product Name>
Sangivamycin

>  <ROW>
K

>  <COLUMN>
8

>  <CAS No.>
18417-89-5

>  <MWt>
309.28

>  <Target>
Nucleoside Antimetabolite/Analog; PKC

>  <Saltdate>


>  <Smiles>
OC[C@@H]1[C@@H](O)[C@@H](O)[C@H](N2C3=NC=NC(N)=C3C(C(N)=O)=C2)O1

>  <Solvent>
DMSO Solution

>  <Batch No.>
158704

>  <Quantity>
10mM  * 50uL

>  <Pathway>
Cell Cycle/DNA Damage; Epigenetics; TGF-beta/Smad

>  <Synonyms>
NSC 65346; BA-90912

>  <Formula>
C12H15N5O5

>  <Research_Area>
Cancer

>  <Clinical_Information>
No Development Reported

>  <SUPPLIER>
MedChemExpress

$$$$
Untitled Document
  ChemDraw11191813422D

 24 27  0  0  0  0  0  0  0  0999 V2000
   -2.0390    0.9342    0.0000 N   0  0  0  0  0  0  0  0  0  0  0  0
   -1.3716    0.4493    0.0000 C   0  0  0  0  0  0  0  0  0  0  0  0
   -0.5646    0.6208    0.0000 C   0  0  0  0  0  0  0  0  0  0  0  0
   -0.0126    0.0077    0.0000 C   0  0  0  0  0  0  0  0  0  0  0  0
   -0.2675   -0.7769    0.0000 C   0  0  0  0  0  0  0  0  0  0  0  0
   -1.0745   -0.9484    0.0000 C   0  0  0  0  0  0  0  0  0  0  0  0
   -1.6265   -0.3354    0.0000 C   0  0  0  0  0  0  0  0  0  0  0  0
   -2.4515   -0.3354    0.0000 C   0  0  0  0  0  0  0  0  0  0  0  0
   -3.0036   -0.9484    0.0000 C   0  0  0  0  0  0  0  0  0  0  0  0
   -3.8106   -0.7769    0.0000 C   0  0  0  0  0  0  0  0  0  0  0  0
   -4.0655    0.0077    0.0000 C   0  0  0  0  0  0  0  0  0  0  0  0
   -3.5135    0.6208    0.0000 C   0  0  0  0  0  0  0  0  0  0  0  0
   -2.7065    0.4493    0.0000 C   0  0  0  0  0  0  0  0  0  0  0  0
    0.2845   -1.3900    0.0000 C   0  0  0  0  0  0  0  0  0  0  0  0
    1.0915   -1.2185    0.0000 N   0  0  0  0  0  0  0  0  0  0  0  0
    1.6748   -1.8019    0.0000 C   0  0  0  0  0  0  0  0  0  0  0  0
    2.4717   -1.5883    0.0000 C   0  0  0  0  0  0  0  0  0  0  0  0
    2.6852   -0.7914    0.0000 C   0  0  0  0  0  0  0  0  0  0  0  0
    3.4821   -0.5779    0.0000 C   0  0  0  0  0  0  0  0  0  0  0  0
    4.0655   -1.1613    0.0000 C   0  0  0  0  0  0  0  0  0  0  0  0
    3.8520   -1.9582    0.0000 C   0  0  0  0  0  0  0  0  0  0  0  0
    3.0551   -2.1717    0.0000 N   0  0  0  0  0  0  0  0  0  0  0  0
   -2.0390    1.7592    0.0000 C   0  0  0  0  0  0  0  0  0  0  0  0
   -2.7535    2.1717    0.0000 C   0  0  0  0  0  0  0  0  0  0  0  0
  1  2  1  0      
  2  3  1  0      
  3  4  2  0      
  4  5  1  0      
  5  6  2  0      
  6  7  1  0      
  2  7  2  0      
  7  8  1  0      
  8  9  1  0      
  9 10  2  0      
 10 11  1  0      
 11 12  2  0      
 12 13  1  0      
  8 13  2  0      
  1 13  1  0      
 14 15  1  0      
  5 14  1  0      
 17 18  1  0      
 18 19  2  0      
 19 20  1  0      
 20 21  2  0      
 21 22  1  0      
 17 22  2  0      
 16 17  1  0      
 15 16  1  0      
 23 24  1  0      
  1 23  1  0      
M  END

>  <RackCode>
HYCPK72335

>  <Cat. No.>
HY-120137

>  <Product Name>
CMP-5

>  <ROW>
L

>  <COLUMN>
8

>  <CAS No.>
880813-42-3

>  <MWt>
315.41

>  <Target>
Histone Methyltransferase

>  <Saltdate>
Free Base

>  <Smiles>
CCN1C2=C(C3=C1C=CC=C3)C=C(CNCC4=NC=CC=C4)C=C2

>  <Solvent>
DMSO Solution

>  <Batch No.>
292095

>  <Quantity>
10mM  * 50uL

>  <Pathway>
Epigenetics

>  <Synonyms>


>  <Formula>
C21H21N3

>  <Research_Area>
Cancer

>  <Clinical_Information>
No Development Reported

>  <SUPPLIER>
MedChemExpress

$$$$
Untitled Document
  ChemDraw08112414402D

 64 70  0  0  0  0  0  0  0  0999 V2000
    4.7519   -1.0505    0.0000 C   0  0  0  0  0  0  0  0  0  0  0  0
    4.0374   -1.4630    0.0000 C   0  0  0  0  0  0  0  0  0  0  0  0
    3.3230   -1.0505    0.0000 C   0  0  0  0  0  0  0  0  0  0  0  0
    2.6085   -1.4630    0.0000 C   0  0  0  0  0  0  0  0  0  0  0  0
    1.8940   -1.0505    0.0000 C   0  0  0  0  0  0  0  0  0  0  0  0
    1.1796   -1.4630    0.0000 C   0  0  0  0  0  0  0  0  0  0  0  0
    0.4652   -1.0505    0.0000 C   0  0  0  0  0  0  0  0  0  0  0  0
   -0.2493   -1.4630    0.0000 C   0  0  0  0  0  0  0  0  0  0  0  0
   -0.9638   -1.0505    0.0000 C   0  0  0  0  0  0  0  0  0  0  0  0
   -1.6782   -1.4630    0.0000 C   0  0  0  0  0  0  0  0  0  0  0  0
   -2.3926   -1.0505    0.0000 C   0  0  0  0  0  0  0  0  0  0  0  0
   -3.1071   -1.4630    0.0000 C   0  0  0  0  0  0  0  0  0  0  0  0
    4.7519   -0.2255    0.0000 O   0  0  0  0  0  0  0  0  0  0  0  0
    5.4663   -1.4630    0.0000 N   0  0  0  0  0  0  0  0  0  0  0  0
   -3.1071   -2.2879    0.0000 O   0  0  0  0  0  0  0  0  0  0  0  0
   -3.8216   -1.0505    0.0000 N   0  0  0  0  0  0  0  0  0  0  0  0
   -3.8216   -0.2255    0.0000 C   0  0  0  0  0  0  0  0  0  0  0  0
   -4.5360    0.1870    0.0000 C   0  0  0  0  0  0  0  0  0  0  0  0
   -5.2504   -0.2255    0.0000 N   0  0  0  0  0  0  0  0  0  0  0  0
   -5.2504   -1.0505    0.0000 C   0  0  0  0  0  0  0  0  0  0  0  0
   -4.5360   -1.4630    0.0000 C   0  0  0  0  0  0  0  0  0  0  0  0
   -5.9649    0.1870    0.0000 C   0  0  0  0  0  0  0  0  0  0  0  0
   -6.6793   -0.2255    0.0000 C   0  0  0  0  0  0  0  0  0  0  0  0
   -6.6793   -1.0505    0.0000 C   0  0  0  0  0  0  0  0  0  0  0  0
   -7.3938   -1.4630    0.0000 C   0  0  0  0  0  0  0  0  0  0  0  0
   -8.1083   -1.0505    0.0000 C   0  0  0  0  0  0  0  0  0  0  0  0
   -8.1083   -0.2255    0.0000 C   0  0  0  0  0  0  0  0  0  0  0  0
   -7.3938    0.1870    0.0000 C   0  0  0  0  0  0  0  0  0  0  0  0
   -5.9649    1.0120    0.0000 O   0  0  0  0  0  0  0  0  0  0  0  0
   -8.8226    0.1870    0.0000 C   0  0  0  0  0  0  0  0  0  0  0  0
   -9.5371   -0.2255    0.0000 C   0  0  0  0  0  0  0  0  0  0  0  0
  -10.2516    0.1870    0.0000 N   0  0  0  0  0  0  0  0  0  0  0  0
  -10.9661   -0.2255    0.0000 N   0  0  0  0  0  0  0  0  0  0  0  0
  -10.9661   -1.0505    0.0000 C   0  0  0  0  0  0  0  0  0  0  0  0
  -10.2516   -1.4630    0.0000 C   0  0  0  0  0  0  0  0  0  0  0  0
  -10.2516   -2.2879    0.0000 C   0  0  0  0  0  0  0  0  0  0  0  0
   -9.5371   -2.7004    0.0000 C   0  0  0  0  0  0  0  0  0  0  0  0
   -8.8226   -2.2879    0.0000 C   0  0  0  0  0  0  0  0  0  0  0  0
   -8.8226   -1.4630    0.0000 C   0  0  0  0  0  0  0  0  0  0  0  0
   -9.5371   -1.0505    0.0000 C   0  0  0  0  0  0  0  0  0  0  0  0
  -11.6805   -1.4630    0.0000 O   0  0  0  0  0  0  0  0  0  0  0  0
   -5.9649   -1.4630    0.0000 F   0  0  0  0  0  0  0  0  0  0  0  0
    6.1807   -1.0505    0.0000 C   0  0  0  0  0  0  0  0  0  0  0  0
    6.8952   -1.4630    0.0000 C   0  0  0  0  0  0  0  0  0  0  0  0
    7.6097   -1.0505    0.0000 N   0  0  0  0  0  0  0  0  0  0  0  0
   10.3661   -0.9110    0.0000 C   0  0  0  0  0  0  0  0  0  0  0  0
   10.0305   -0.1573    0.0000 N   0  0  0  0  0  0  0  0  0  0  0  0
    9.2101   -0.2436    0.0000 C   0  0  0  0  0  0  0  0  0  0  0  0
    9.0385   -1.0505    0.0000 C   0  0  0  0  0  0  0  0  0  0  0  0
    8.3242   -1.4630    0.0000 C   0  0  0  0  0  0  0  0  0  0  0  0
    8.3242   -2.2879    0.0000 C   0  0  0  0  0  0  0  0  0  0  0  0
    9.0385   -2.7004    0.0000 C   0  0  0  0  0  0  0  0  0  0  0  0
    9.7530   -2.2879    0.0000 C   0  0  0  0  0  0  0  0  0  0  0  0
    9.7530   -1.4630    0.0000 C   0  0  0  0  0  0  0  0  0  0  0  0
    8.6580    0.3695    0.0000 O   0  0  0  0  0  0  0  0  0  0  0  0
   11.1731   -1.0825    0.0000 O   0  0  0  0  0  0  0  0  0  0  0  0
   10.4430    1.9860    0.0000 N   0  0  0  0  0  0  0  0  0  0  0  0
   10.0305    1.2716    0.0000 C   0  0  0  0  0  0  0  0  0  0  0  0
   10.4430    0.5571    0.0000 C   0  0  0  0  0  0  0  0  0  0  0  0
   11.2680    0.5571    0.0000 C   0  0  0  0  0  0  0  0  0  0  0  0
   11.6805    1.2716    0.0000 C   0  0  0  0  0  0  0  0  0  0  0  0
   11.2680    1.9860    0.0000 C   0  0  0  0  0  0  0  0  0  0  0  0
   11.6805    2.7004    0.0000 O   0  0  0  0  0  0  0  0  0  0  0  0
    9.2055    1.2716    0.0000 O   0  0  0  0  0  0  0  0  0  0  0  0
  1  2  1  0      
  2  3  1  0      
  3  4  1  0      
  4  5  1  0      
  5  6  1  0      
  6  7  1  0      
  7  8  1  0      
  8  9  1  0      
  9 10  1  0      
 10 11  1  0      
 11 12  1  0      
  1 13  2  0      
  1 14  1  0      
 12 15  2  0      
 16 17  1  0      
 17 18  1  0      
 18 19  1  0      
 19 20  1  0      
 20 21  1  0      
 16 21  1  0      
 22 23  1  0      
 23 24  1  0      
 24 25  2  0      
 25 26  1  0      
 26 27  2  0      
 27 28  1  0      
 23 28  2  0      
 22 29  2  0      
 31 32  2  0      
 32 33  1  0      
 33 34  1  0      
 34 35  1  0      
 35 36  1  0      
 36 37  2  0      
 37 38  1  0      
 38 39  2  0      
 39 40  1  0      
 31 40  1  0      
 35 40  2  0      
 34 41  2  0      
 30 31  1  0      
 27 30  1  0      
 24 42  1  0      
 19 22  1  0      
 12 16  1  0      
 43 44  1  0      
 46 47  1  0      
 47 48  1  0      
 48 49  1  0      
 49 50  1  0      
 50 51  2  0      
 51 52  1  0      
 52 53  2  0      
 53 54  1  0      
 46 54  1  0      
 49 54  2  0      
 48 55  2  0      
 46 56  2  0      
 57 58  1  0      
 58 59  1  0      
 59 60  1  0      
 60 61  1  0      
 61 62  1  0      
 57 62  1  0      
 62 63  2  0      
 58 64  2  0      
 47 59  1  0      
 45 50  1  0      
 44 45  1  0      
 14 43  1  0      
M  END

>  <RackCode>
HYCPK72335

>  <Cat. No.>
HY-139156

>  <Product Name>
SK-575

>  <ROW>
M

>  <COLUMN>
8

>  <CAS No.>
2523016-96-6

>  <MWt>
876.97

>  <Target>
PARP; PROTACs

>  <Saltdate>


>  <Smiles>
O=C(NCCNC1=CC=CC(C(N2C(CC3)C(NC3=O)=O)=O)=C1C2=O)CCCCCCCCCCC(N4CCN(C(C5=CC(CC6=NNC(C7=C6C=CC=C7)=O)=CC=C5F)=O)CC4)=O

>  <Solvent>
DMSO Solution

>  <Batch No.>
248127

>  <Quantity>
10mM  * 50uL

>  <Pathway>
Cell Cycle/DNA Damage; Epigenetics; PROTAC

>  <Synonyms>


>  <Formula>
C47H53FN8O8

>  <Research_Area>
Cancer

>  <Clinical_Information>
No Development Reported

>  <SUPPLIER>
MedChemExpress

$$$$
Untitled Document
  ChemDraw12121716162D

 20 22  0  0  0  0  0  0  0  0999 V2000
    0.3572    1.0313    0.0000 C   0  0  0  0  0  0  0  0  0  0  0  0
    0.3572    0.2063    0.0000 C   0  0  0  0  0  0  0  0  0  0  0  0
   -0.3572   -0.2063    0.0000 C   0  0  0  0  0  0  0  0  0  0  0  0
   -1.0717    0.2063    0.0000 C   0  0  0  0  0  0  0  0  0  0  0  0
   -1.0717    1.0313    0.0000 C   0  0  0  0  0  0  0  0  0  0  0  0
   -0.3572    1.4438    0.0000 O   0  0  0  0  0  0  0  0  0  0  0  0
   -1.7862    1.4438    0.0000 C   0  0  0  0  0  0  0  0  0  0  0  0
   -2.5006    1.0313    0.0000 C   0  0  0  0  0  0  0  0  0  0  0  0
   -2.5006    0.2063    0.0000 C   0  0  0  0  0  0  0  0  0  0  0  0
   -1.7862   -0.2063    0.0000 C   0  0  0  0  0  0  0  0  0  0  0  0
   -0.3572   -1.0313    0.0000 O   0  0  0  0  0  0  0  0  0  0  0  0
    1.0717   -0.2063    0.0000 C   0  0  0  0  0  0  0  0  0  0  0  0
    1.7862    0.2063    0.0000 C   0  0  0  0  0  0  0  0  0  0  0  0
    2.5006   -0.2063    0.0000 C   0  0  0  0  0  0  0  0  0  0  0  0
    2.5006   -1.0313    0.0000 C   0  0  0  0  0  0  0  0  0  0  0  0
    1.7862   -1.4438    0.0000 C   0  0  0  0  0  0  0  0  0  0  0  0
    1.0717   -1.0313    0.0000 C   0  0  0  0  0  0  0  0  0  0  0  0
    3.2151   -1.4438    0.0000 O   0  0  0  0  0  0  0  0  0  0  0  0
   -3.2151    1.4438    0.0000 O   0  0  0  0  0  0  0  0  0  0  0  0
   -3.2151   -0.2063    0.0000 O   0  0  0  0  0  0  0  0  0  0  0  0
  1  2  2  0      
  2  3  1  0      
  3  4  1  0      
  4  5  1  0      
  5  6  1  0      
  1  6  1  0      
  7  8  1  0      
  8  9  2  0      
  9 10  1  0      
  4 10  2  0      
  5  7  2  0      
  3 11  2  0      
 12 13  1  0      
 13 14  2  0      
 14 15  1  0      
 15 16  2  0      
 16 17  1  0      
 12 17  2  0      
 15 18  1  0      
  2 12  1  0      
  8 19  1  0      
  9 20  1  0      
M  END

>  <RackCode>
HYCPK72335

>  <Cat. No.>
HY-N5072

>  <Product Name>
Desmethylglycitein

>  <ROW>
N

>  <COLUMN>
8

>  <CAS No.>
17817-31-1

>  <MWt>
270.24

>  <Target>
CDK; PI3K; PKC

>  <Saltdate>
Free Base

>  <Smiles>
O=C1C(C2=CC=C(O)C=C2)=COC3=CC(O)=C(O)C=C13

>  <Solvent>
DMSO Solution

>  <Batch No.>
63901

>  <Quantity>
10mM  * 50uL

>  <Pathway>
Cell Cycle/DNA Damage; Epigenetics; PI3K/Akt/mTOR; TGF-beta/Smad

>  <Synonyms>
4',6,7-Trihydroxyisoflavone

>  <Formula>
C15H10O5

>  <Research_Area>
Cancer

>  <Clinical_Information>
No Development Reported

>  <SUPPLIER>
MedChemExpress

$$$$
Untitled Document
  ChemDraw10101810212D

 29 33  0  0  0  0  0  0  0  0999 V2000
   -3.5344    1.1796    0.0000 C   0  0  0  0  0  0  0  0  0  0  0  0
   -3.5344    0.3546    0.0000 C   0  0  0  0  0  0  0  0  0  0  0  0
   -2.8200   -0.0579    0.0000 C   0  0  0  0  0  0  0  0  0  0  0  0
   -2.1055    0.3546    0.0000 C   0  0  0  0  0  0  0  0  0  0  0  0
   -2.1055    1.1796    0.0000 C   0  0  0  0  0  0  0  0  0  0  0  0
   -2.8200    1.5921    0.0000 C   0  0  0  0  0  0  0  0  0  0  0  0
   -2.9915    2.3990    0.0000 C   0  0  0  0  0  0  0  0  0  0  0  0
   -3.8120    2.4853    0.0000 N   0  0  0  0  0  0  0  0  0  0  0  0
   -4.1475    1.7316    0.0000 N   0  0  0  0  0  0  0  0  0  0  0  0
   -4.9517    1.5607    0.0000 C   0  0  0  0  0  0  0  0  0  0  0  0
   -1.3935   -0.0565    0.0000 C   0  0  0  0  0  0  0  0  0  0  0  0
   -0.6815    0.3546    0.0000 N   0  0  0  0  0  0  0  0  0  0  0  0
   -1.3935   -0.8786    0.0000 O   0  0  0  0  0  0  0  0  0  0  0  0
    0.0280   -0.0551    0.0000 C   0  0  0  0  0  0  0  0  0  0  0  0
    0.0280   -0.8801    0.0000 C   0  0  0  0  0  0  0  0  0  0  0  0
    0.7425   -1.2926    0.0000 C   0  0  0  0  0  0  0  0  0  0  0  0
    1.4569   -0.8801    0.0000 C   0  0  0  0  0  0  0  0  0  0  0  0
    1.4569   -0.0551    0.0000 C   0  0  0  0  0  0  0  0  0  0  0  0
    0.7425    0.3574    0.0000 C   0  0  0  0  0  0  0  0  0  0  0  0
    2.2416   -1.1350    0.0000 N   0  0  0  0  0  0  0  0  0  0  0  0
    2.7265   -0.4676    0.0000 C   0  0  0  0  0  0  0  0  0  0  0  0
    2.2416    0.1999    0.0000 N   0  0  0  0  0  0  0  0  0  0  0  0
    3.5486   -0.4676    0.0000 C   0  0  0  0  0  0  0  0  0  0  0  0
    3.9597   -1.1796    0.0000 N   0  0  0  0  0  0  0  0  0  0  0  0
    3.6241   -1.9332    0.0000 C   0  0  0  0  0  0  0  0  0  0  0  0
    4.2372   -2.4853    0.0000 C   0  0  0  0  0  0  0  0  0  0  0  0
    4.9517   -2.0728    0.0000 C   0  0  0  0  0  0  0  0  0  0  0  0
    4.7802   -1.2658    0.0000 C   0  0  0  0  0  0  0  0  0  0  0  0
    2.8200   -2.1042    0.0000 C   0  0  0  0  0  0  0  0  0  0  0  0
  1  2  2  0      
  2  3  1  0      
  3  4  2  0      
  4  5  1  0      
  5  6  2  0      
  6  1  1  0      
  6  7  1  0      
  7  8  2  0      
  8  9  1  0      
  9  1  1  0      
  9 10  1  0      
  4 11  1  0      
 11 12  1  0      
 11 13  2  0      
 12 14  1  0      
 14 15  2  0      
 15 16  1  0      
 16 17  2  0      
 17 18  1  0      
 18 19  2  0      
 19 14  1  0      
 17 20  1  0      
 20 21  1  0      
 21 22  2  0      
 22 18  1  0      
 21 23  1  0      
 23 24  1  0      
 24 25  1  0      
 25 26  1  0      
 26 27  1  0      
 27 28  1  0      
 28 24  1  0      
 25 29  1  6      
M  END

>  <RackCode>
HYCPK72335

>  <Cat. No.>
HY-112804

>  <Product Name>
SGC-iMLLT

>  <ROW>
O

>  <COLUMN>
8

>  <CAS No.>
2255338-25-9

>  <MWt>
388.47

>  <Target>
Epigenetic Reader Domain

>  <Saltdate>
Free Base

>  <Smiles>
CN1N=CC2=CC(C(NC3=CC=C(NC(CN4[C@@H](C)CCC4)=N5)C5=C3)=O)=CC=C21

>  <Solvent>
DMSO Solution

>  <Batch No.>
204924

>  <Quantity>
10mM  * 50uL

>  <Pathway>
Epigenetics

>  <Synonyms>


>  <Formula>
C22H24N6O

>  <Research_Area>
Cancer

>  <Clinical_Information>
No Development Reported

>  <SUPPLIER>
MedChemExpress

$$$$
Untitled Document
  ChemDraw04031311022D

 34 38  0  0  0  0  0  0  0  0999 V2000
   -0.3075   -1.6549    0.0000 N   0  0  0  0  0  0  0  0  0  0  0  0
   -0.0525   -0.8703    0.0000 C   0  0  0  0  0  0  0  0  0  0  0  0
   -0.7200   -0.3853    0.0000 C   0  0  0  0  0  0  0  0  0  0  0  0
   -1.3874   -0.8703    0.0000 C   0  0  0  0  0  0  0  0  0  0  0  0
   -1.1325   -1.6549    0.0000 C   0  0  0  0  0  0  0  0  0  0  0  0
    0.7321   -0.6153    0.0000 O   0  0  0  0  0  0  0  0  0  0  0  0
   -1.6174   -2.3223    0.0000 O   0  0  0  0  0  0  0  0  0  0  0  0
   -3.2520    0.1693    0.0000 N   0  0  0  0  0  0  0  0  0  0  0  0
   -2.4270    0.1693    0.0000 C   0  0  0  0  0  0  0  0  0  0  0  0
   -2.1720   -0.6153    0.0000 C   0  0  0  0  0  0  0  0  0  0  0  0
   -2.8395   -1.1002    0.0000 C   0  0  0  0  0  0  0  0  0  0  0  0
   -2.9257   -1.9207    0.0000 C   0  0  0  0  0  0  0  0  0  0  0  0
   -3.6794   -2.2563    0.0000 C   0  0  0  0  0  0  0  0  0  0  0  0
   -4.3468   -1.7714    0.0000 C   0  0  0  0  0  0  0  0  0  0  0  0
   -4.2606   -0.9509    0.0000 C   0  0  0  0  0  0  0  0  0  0  0  0
   -3.5069   -0.6153    0.0000 C   0  0  0  0  0  0  0  0  0  0  0  0
   -3.7369    0.8368    0.0000 C   0  0  0  0  0  0  0  0  0  0  0  0
   -0.3075    1.7092    0.0000 N   0  0  0  0  0  0  0  0  0  0  0  0
   -0.0525    0.9246    0.0000 C   0  0  0  0  0  0  0  0  0  0  0  0
   -0.7200    0.4397    0.0000 C   0  0  0  0  0  0  0  0  0  0  0  0
   -1.3874    0.9246    0.0000 C   0  0  0  0  0  0  0  0  0  0  0  0
   -2.1944    0.7531    0.0000 C   0  0  0  0  0  0  0  0  0  0  0  0
   -2.7464    1.3662    0.0000 C   0  0  0  0  0  0  0  0  0  0  0  0
   -2.4915    2.1508    0.0000 C   0  0  0  0  0  0  0  0  0  0  0  0
   -1.6845    2.3223    0.0000 C   0  0  0  0  0  0  0  0  0  0  0  0
   -1.1325    1.7092    0.0000 C   0  0  0  0  0  0  0  0  0  0  0  0
    0.7544    0.7531    0.0000 C   0  0  0  0  0  0  0  0  0  0  0  0
    1.3065    1.3662    0.0000 C   0  0  0  0  0  0  0  0  0  0  0  0
    1.0515    2.1508    0.0000 C   0  0  0  0  0  0  0  0  0  0  0  0
    0.2446    2.3223    0.0000 C   0  0  0  0  0  0  0  0  0  0  0  0
    2.1135    1.1946    0.0000 C   0  0  0  0  0  0  0  0  0  0  0  0
    2.6968    1.7780    0.0000 N   0  0  0  0  0  0  0  0  0  0  0  0
    3.5218    0.0000    0.0000 H   0  0  0  0  0  0  0  0  0  0  0  0
    4.3468    0.0000    0.0000 Cl  0  0  0  0  0  0  0  0  0  0  0  0
  1  2  1  0      
  2  3  1  0      
  3  4  2  0      
  4  5  1  0      
  1  5  1  0      
  2  6  2  0      
  5  7  2  0      
  8  9  1  0      
  9 10  2  0      
 10 11  1  0      
 11 12  1  0      
 12 13  2  0      
 13 14  1  0      
 14 15  2  0      
 15 16  1  0      
  8 16  1  0      
 11 16  2  0      
  8 17  1  0      
  4 10  1  0      
 18 19  1  0      
 19 20  2  0      
 20 21  1  0      
 21 22  1  0      
 22 23  2  0      
 23 24  1  0      
 24 25  2  0      
 25 26  1  0      
 18 26  1  0      
 21 26  2  0      
 27 28  1  0      
 28 29  1  0      
 29 30  1  0      
 18 30  1  0      
 19 27  1  0      
 31 32  1  0      
 28 31  1  0      
  3 20  1  0      
 33 34  1  0      
M  END

>  <RackCode>
HYCPK72335

>  <Cat. No.>
HY-108136A

>  <Product Name>
Bisindolylmaleimide X (hydrochloride)

>  <ROW>
P

>  <COLUMN>
8

>  <CAS No.>
145317-11-9

>  <MWt>
460.96

>  <Target>
CDK; PKC

>  <Saltdate>
Hydrochloride

>  <Smiles>
O=C(C(C1=C(CC(CN)CC2)N2C3=C1C=CC=C3)=C4C5=CN(C)C6=C5C=CC=C6)NC4=O.[H]Cl

>  <Solvent>
DMSO Solution

>  <Batch No.>
44832

>  <Quantity>
10mM  * 50uL

>  <Pathway>
Cell Cycle/DNA Damage; Epigenetics; TGF-beta/Smad

>  <Synonyms>
BIM-X (hydrochloride); Ro31-8425 (hydrochloride)

>  <Formula>
C26H25ClN4O2

>  <Research_Area>
Cardiovascular Disease

>  <Clinical_Information>
No Development Reported

>  <SUPPLIER>
MedChemExpress

$$$$
Untitled Document
  ChemDraw08271911042D

 32 35  0  0  0  0  0  0  0  0999 V2000
    1.7246   -1.9790    0.0000 N   0  0  0  0  0  0  0  0  0  0  0  0
    2.4390   -1.5665    0.0000 C   0  0  0  0  0  0  0  0  0  0  0  0
    2.4390   -0.7415    0.0000 N   0  0  0  0  0  0  0  0  0  0  0  0
    1.7246   -0.3290    0.0000 C   0  0  0  0  0  0  0  0  0  0  0  0
    1.0101   -0.7415    0.0000 C   0  0  0  0  0  0  0  0  0  0  0  0
    0.2956   -0.3290    0.0000 C   0  0  0  0  0  0  0  0  0  0  0  0
   -0.4189   -0.7415    0.0000 C   0  0  0  0  0  0  0  0  0  0  0  0
   -0.4189   -1.5665    0.0000 C   0  0  0  0  0  0  0  0  0  0  0  0
    0.2956   -1.9790    0.0000 C   0  0  0  0  0  0  0  0  0  0  0  0
    1.0101   -1.5665    0.0000 C   0  0  0  0  0  0  0  0  0  0  0  0
    1.7246    0.4960    0.0000 N   0  0  0  0  0  0  0  0  0  0  0  0
   -1.1333   -1.9790    0.0000 O   0  0  0  0  0  0  0  0  0  0  0  0
   -1.8478   -1.5665    0.0000 C   0  0  0  0  0  0  0  0  0  0  0  0
   -2.5623   -1.9790    0.0000 C   0  0  0  0  0  0  0  0  0  0  0  0
   -3.2767   -1.5665    0.0000 C   0  0  0  0  0  0  0  0  0  0  0  0
   -3.9912   -1.9790    0.0000 N   0  0  0  0  0  0  0  0  0  0  0  0
   -4.0774   -2.7995    0.0000 C   0  0  0  0  0  0  0  0  0  0  0  0
   -4.8844   -2.9710    0.0000 C   0  0  0  0  0  0  0  0  0  0  0  0
   -5.2969   -2.2565    0.0000 C   0  0  0  0  0  0  0  0  0  0  0  0
   -4.7449   -1.6434    0.0000 C   0  0  0  0  0  0  0  0  0  0  0  0
    3.8680    1.7335    0.0000 N   0  0  0  0  0  0  0  0  0  0  0  0
    3.8680    0.9085    0.0000 C   0  0  0  0  0  0  0  0  0  0  0  0
    3.1535    0.4960    0.0000 C   0  0  0  0  0  0  0  0  0  0  0  0
    2.4390    0.9085    0.0000 C   0  0  0  0  0  0  0  0  0  0  0  0
    2.4390    1.7335    0.0000 C   0  0  0  0  0  0  0  0  0  0  0  0
    3.1535    2.1460    0.0000 C   0  0  0  0  0  0  0  0  0  0  0  0
    4.5824    2.1460    0.0000 C   0  0  0  0  0  0  0  0  0  0  0  0
    4.5824    2.9710    0.0000 C   0  0  0  0  0  0  0  0  0  0  0  0
    5.2969    1.7335    0.0000 C   0  0  0  0  0  0  0  0  0  0  0  0
   -1.1333   -0.3290    0.0000 O   0  0  0  0  0  0  0  0  0  0  0  0
   -1.8478   -0.7415    0.0000 C   0  0  0  0  0  0  0  0  0  0  0  0
    3.1535   -1.9790    0.0000 Cl  0  0  0  0  0  0  0  0  0  0  0  0
  1  2  1  0      
  2  3  2  0      
  3  4  1  0      
  4  5  2  0      
  5  6  1  0      
  6  7  2  0      
  7  8  1  0      
  8  9  2  0      
  9 10  1  0      
  1 10  2  0      
  5 10  1  0      
  4 11  1  0      
 13 14  1  0      
 14 15  1  0      
 12 13  1  0      
 16 17  1  0      
 17 18  1  0      
 18 19  1  0      
 19 20  1  0      
 16 20  1  0      
 15 16  1  0      
  8 12  1  0      
 21 22  1  0      
 22 23  1  0      
 23 24  1  0      
 24 25  1  0      
 25 26  1  0      
 21 26  1  0      
 27 28  1  0      
 27 29  1  0      
 21 27  1  0      
 11 24  1  0      
 30 31  1  0      
  7 30  1  0      
  2 32  1  0      
M  END

>  <RackCode>
HYCPK72335

>  <Cat. No.>
HY-44062

>  <Product Name>
G9a-IN-1

>  <ROW>
A

>  <COLUMN>
9

>  <CAS No.>
1350752-07-6

>  <MWt>
462.03

>  <Target>
Histone Methyltransferase

>  <Saltdate>


>  <Smiles>
CC(N1CCC(NC2=C3C=C(OC)C(OCCCN4CCCC4)=CC3=NC(Cl)=N2)CC1)C

>  <Solvent>
DMSO Solution

>  <Batch No.>
318348

>  <Quantity>
10mM  * 50uL

>  <Pathway>
Epigenetics

>  <Synonyms>


>  <Formula>
C24H36ClN5O2

>  <Research_Area>
Inflammation/Immunology; Cancer

>  <Clinical_Information>
No Development Reported

>  <SUPPLIER>
MedChemExpress

$$$$
Untitled Document
  ChemDraw03142317182D

 37 39  0  0  0  0  0  0  0  0999 V2000
    0.7145    3.2999    0.0000 C   0  0  0  0  0  0  0  0  0  0  0  0
    1.4289    2.8874    0.0000 C   0  0  0  0  0  0  0  0  0  0  0  0
    1.4289    2.0624    0.0000 C   0  0  0  0  0  0  0  0  0  0  0  0
    2.1433    1.6500    0.0000 C   0  0  0  0  0  0  0  0  0  0  0  0
    2.1433    0.8250    0.0000 C   0  0  0  0  0  0  0  0  0  0  0  0
    1.4289    0.4125    0.0000 C   0  0  0  0  0  0  0  0  0  0  0  0
    1.4289   -0.4125    0.0000 N   0  0  0  0  0  0  0  0  0  0  0  0
    0.7145   -0.8250    0.0000 C   0  0  0  0  0  0  0  0  0  0  0  0
    0.7145   -1.6499    0.0000 C   0  0  0  0  0  0  0  0  0  0  0  0
    1.4289   -2.0624    0.0000 N   0  0  0  0  0  0  0  0  0  0  0  0
    2.1433   -1.6499    0.0000 C   0  0  0  0  0  0  0  0  0  0  0  0
    2.8578   -2.0624    0.0000 O   0  0  0  0  0  0  0  0  0  0  0  0
    3.5723   -1.6499    0.0000 C   0  0  0  0  0  0  0  0  0  0  0  0
    4.2867   -2.0624    0.0000 C   0  0  0  0  0  0  0  0  0  0  0  0
    5.0011   -1.6499    0.0000 C   0  0  0  0  0  0  0  0  0  0  0  0
    5.7156   -2.0624    0.0000 C   0  0  0  0  0  0  0  0  0  0  0  0
    5.7156   -2.8874    0.0000 C   0  0  0  0  0  0  0  0  0  0  0  0
    5.0011   -3.2999    0.0000 C   0  0  0  0  0  0  0  0  0  0  0  0
    4.2867   -2.8874    0.0000 C   0  0  0  0  0  0  0  0  0  0  0  0
    2.1433   -0.8250    0.0000 O   0  0  0  0  0  0  0  0  0  0  0  0
   -0.0000   -2.0624    0.0000 C   0  0  0  0  0  0  0  0  0  0  0  0
   -0.7145   -1.6499    0.0000 C   0  0  0  0  0  0  0  0  0  0  0  0
   -1.4289   -2.0624    0.0000 C   0  0  0  0  0  0  0  0  0  0  0  0
   -2.1433   -1.6499    0.0000 C   0  0  0  0  0  0  0  0  0  0  0  0
   -2.8578   -2.0624    0.0000 N   0  0  0  0  0  0  0  0  0  0  0  0
   -3.5723   -1.6499    0.0000 C   0  0  0  0  0  0  0  0  0  0  0  0
   -4.2867   -2.0624    0.0000 C   0  0  0  0  0  0  0  0  0  0  0  0
   -5.0011   -1.6499    0.0000 C   0  0  0  0  0  0  0  0  0  0  0  0
   -5.7156   -2.0624    0.0000 C   0  0  0  0  0  0  0  0  0  0  0  0
   -3.5723   -0.8250    0.0000 O   0  0  0  0  0  0  0  0  0  0  0  0
   -0.0000   -0.4125    0.0000 O   0  0  0  0  0  0  0  0  0  0  0  0
    0.7145    0.8250    0.0000 C   0  0  0  0  0  0  0  0  0  0  0  0
    0.7145    1.6500    0.0000 C   0  0  0  0  0  0  0  0  0  0  0  0
    2.8578    2.0624    0.0000 O   0  0  0  0  0  0  0  0  0  0  0  0
    2.8578    2.8874    0.0000 C   0  0  0  0  0  0  0  0  0  0  0  0
    3.5723    3.2999    0.0000 O   0  0  0  0  0  0  0  0  0  0  0  0
    2.1433    3.2999    0.0000 C   0  0  0  0  0  0  0  0  0  0  0  0
  1  2  1  0      
  2  3  1  0      
  3  4  1  0      
  4  5  2  0      
  5  6  1  0      
  6  7  1  0      
  7  8  1  0      
  9  8  1  1      
  9 10  1  0      
 10 11  1  0      
 11 12  1  0      
 12 13  1  0      
 13 14  1  0      
 14 15  2  0      
 15 16  1  0      
 16 17  2  0      
 17 18  1  0      
 18 19  2  0      
 14 19  1  0      
 11 20  2  0      
  9 21  1  0      
 21 22  1  0      
 22 23  1  0      
 23 24  1  0      
 24 25  1  0      
 25 26  1  0      
 26 27  1  0      
 27 28  2  0      
 28 29  1  0      
 26 30  2  0      
  8 31  2  0      
  6 32  2  0      
 32 33  1  0      
  3 33  2  0      
  4 34  1  0      
 34 35  1  0      
 35 36  2  0      
 35 37  1  0      
  2 37  2  0      
M  END

>  <RackCode>
HYCPK72335

>  <Cat. No.>
HY-153104

>  <Product Name>
CrBKA

>  <ROW>
B

>  <COLUMN>
9

>  <CAS No.>
2260810-48-6

>  <MWt>
505.56

>  <Target>
Sirtuin

>  <Saltdate>


>  <Smiles>
CC(C1=CC=C(NC([C@H](CCCCNC(/C=C/C)=O)NC(OCC2=CC=CC=C2)=O)=O)C=C1O3)=CC3=O

>  <Solvent>
DMSO Solution

>  <Batch No.>
264014

>  <Quantity>
10mM  * 50uL

>  <Pathway>
Cell Cycle/DNA Damage; Epigenetics

>  <Synonyms>


>  <Formula>
C28H31N3O6

>  <Research_Area>
Cancer

>  <Clinical_Information>
No Development Reported

>  <SUPPLIER>
MedChemExpress

$$$$
Untitled Document
  ChemDraw12201617342D

 16 17  0  0  0  0  0  0  0  0999 V2000
    1.0717    0.2063    0.0000 C   0  0  0  0  0  0  0  0  0  0  0  0
    1.0717    1.0313    0.0000 C   0  0  0  0  0  0  0  0  0  0  0  0
    1.7862   -0.2063    0.0000 N   0  0  0  0  0  0  0  0  0  0  0  0
    1.7862    1.4438    0.0000 N   0  0  0  0  0  0  0  0  0  0  0  0
    2.5006    1.0313    0.0000 C   0  0  0  0  0  0  0  0  0  0  0  0
    2.5006    0.2063    0.0000 C   0  0  0  0  0  0  0  0  0  0  0  0
    0.3572   -0.2063    0.0000 C   0  0  0  0  0  0  0  0  0  0  0  0
    0.3572   -1.0313    0.0000 O   0  0  0  0  0  0  0  0  0  0  0  0
   -0.3572    0.2063    0.0000 N   0  0  0  0  0  0  0  0  0  0  0  0
   -1.0717   -0.2063    0.0000 C   0  0  0  0  0  0  0  0  0  0  0  0
   -1.0717   -1.0313    0.0000 C   0  0  0  0  0  0  0  0  0  0  0  0
   -1.7862   -1.4438    0.0000 C   0  0  0  0  0  0  0  0  0  0  0  0
   -2.5006   -1.0313    0.0000 C   0  0  0  0  0  0  0  0  0  0  0  0
   -2.5006   -0.2063    0.0000 C   0  0  0  0  0  0  0  0  0  0  0  0
   -1.7862    0.2063    0.0000 C   0  0  0  0  0  0  0  0  0  0  0  0
   -0.3572   -1.4438    0.0000 N   0  0  0  0  0  0  0  0  0  0  0  0
  1  2  1  0      
  1  3  2  0      
  2  4  2  0      
  4  5  1  0      
  5  6  2  0      
  3  6  1  0      
  7  8  2  0      
  7  9  1  0      
  1  7  1  0      
 10 11  1  0      
 11 12  2  0      
 12 13  1  0      
 13 14  2  0      
 14 15  1  0      
 10 15  2  0      
 11 16  1  0      
  9 10  1  0      
M  END

>  <RackCode>
HYCPK72335

>  <Cat. No.>
HY-18712

>  <Product Name>
BG45

>  <ROW>
C

>  <COLUMN>
9

>  <CAS No.>
926259-99-6

>  <MWt>
214.22

>  <Target>
Apoptosis; Caspase; HDAC

>  <Saltdate>
Free Base

>  <Smiles>
O=C(C1=NC=CN=C1)NC2=CC=CC=C2N

>  <Solvent>
DMSO Solution

>  <Batch No.>
17873

>  <Quantity>
10mM  * 50uL

>  <Pathway>
Apoptosis; Cell Cycle/DNA Damage; Epigenetics

>  <Synonyms>


>  <Formula>
C11H10N4O

>  <Research_Area>
Cancer

>  <Clinical_Information>
No Development Reported

>  <SUPPLIER>
MedChemExpress

$$$$
Untitled Document
  ChemDraw06271812492D

 30 33  0  0  0  0  0  0  0  0999 V2000
   -4.9460    0.4125    0.0000 C   0  0  0  0  0  0  0  0  0  0  0  0
   -5.7710    0.4125    0.0000 C   0  0  0  0  0  0  0  0  0  0  0  0
   -5.3585    1.1270    0.0000 C   0  0  0  0  0  0  0  0  0  0  0  0
   -4.2316    0.0000    0.0000 C   0  0  0  0  0  0  0  0  0  0  0  0
   -4.2316   -0.8250    0.0000 O   0  0  0  0  0  0  0  0  0  0  0  0
   -3.5171    0.4125    0.0000 N   0  0  0  0  0  0  0  0  0  0  0  0
   -2.8026    0.0000    0.0000 C   0  0  0  0  0  0  0  0  0  0  0  0
   -2.0881    0.4125    0.0000 C   0  0  0  0  0  0  0  0  0  0  0  0
   -1.3737    0.0000    0.0000 C   0  0  0  0  0  0  0  0  0  0  0  0
   -1.3737   -0.8250    0.0000 C   0  0  0  0  0  0  0  0  0  0  0  0
   -2.0881   -1.2375    0.0000 C   0  0  0  0  0  0  0  0  0  0  0  0
   -2.8026   -0.8250    0.0000 C   0  0  0  0  0  0  0  0  0  0  0  0
   -0.6592    0.4125    0.0000 N   0  0  0  0  0  0  0  0  0  0  0  0
    0.0553    0.0000    0.0000 C   0  0  0  0  0  0  0  0  0  0  0  0
    0.7697    0.4125    0.0000 N   0  0  0  0  0  0  0  0  0  0  0  0
    1.4842    0.0000    0.0000 C   0  0  0  0  0  0  0  0  0  0  0  0
    1.4842   -0.8250    0.0000 C   0  0  0  0  0  0  0  0  0  0  0  0
    0.7697   -1.2375    0.0000 C   0  0  0  0  0  0  0  0  0  0  0  0
    0.0553   -0.8250    0.0000 N   0  0  0  0  0  0  0  0  0  0  0  0
    2.1987    0.4125    0.0000 N   0  0  0  0  0  0  0  0  0  0  0  0
    2.9131    0.0000    0.0000 C   0  0  0  0  0  0  0  0  0  0  0  0
    3.6276    0.4125    0.0000 C   0  0  0  0  0  0  0  0  0  0  0  0
    4.3421    0.0000    0.0000 C   0  0  0  0  0  0  0  0  0  0  0  0
    4.3421   -0.8250    0.0000 C   0  0  0  0  0  0  0  0  0  0  0  0
    3.6276   -1.2375    0.0000 C   0  0  0  0  0  0  0  0  0  0  0  0
    2.9131   -0.8250    0.0000 C   0  0  0  0  0  0  0  0  0  0  0  0
    5.0566    0.4125    0.0000 C   0  0  0  0  0  0  0  0  0  0  0  0
    5.7710    0.8250    0.0000 F   0  0  0  0  0  0  0  0  0  0  0  0
    5.0566    1.2375    0.0000 F   0  0  0  0  0  0  0  0  0  0  0  0
    5.7710    0.0000    0.0000 F   0  0  0  0  0  0  0  0  0  0  0  0
  1  2  1  0      
  2  3  1  0      
  1  3  1  0      
  4  5  2  0      
  4  6  1  0      
  1  4  1  0      
  7  8  1  0      
  8  9  2  0      
  9 10  1  0      
 10 11  2  0      
 11 12  1  0      
  7 12  2  0      
 14 15  1  0      
 15 16  2  0      
 16 17  1  0      
 17 18  2  0      
 18 19  1  0      
 14 19  2  0      
 21 22  1  0      
 22 23  2  0      
 23 24  1  0      
 24 25  2  0      
 25 26  1  0      
 21 26  2  0      
 27 28  1  0      
 27 29  1  0      
 27 30  1  0      
 23 27  1  0      
 20 21  1  0      
 16 20  1  0      
 13 14  1  0      
  9 13  1  0      
  6  7  1  0      
M  END

>  <RackCode>
HYCPK72335

>  <Cat. No.>
HY-112373

>  <Product Name>
Aurora kinase inhibitor-3

>  <ROW>
D

>  <COLUMN>
9

>  <CAS No.>
879127-16-9

>  <MWt>
413.40

>  <Target>
Aurora Kinase

>  <Saltdate>
Free Base

>  <Smiles>
O=C(C1CC1)NC2=CC=CC(NC3=NC=CC(NC4=CC=CC(C(F)(F)F)=C4)=N3)=C2

>  <Solvent>
DMSO Solution

>  <Batch No.>
46801

>  <Quantity>
10mM  * 50uL

>  <Pathway>
Cell Cycle/DNA Damage; Epigenetics

>  <Synonyms>


>  <Formula>
C21H18F3N5O

>  <Research_Area>
Others

>  <Clinical_Information>
No Development Reported

>  <SUPPLIER>
MedChemExpress

$$$$
Untitled Document
  ChemDraw04222015542D

 25 28  0  0  0  0  0  0  0  0999 V2000
    2.9953   -1.9049    0.0000 N   0  0  0  0  0  0  0  0  0  0  0  0
    3.4802   -1.2375    0.0000 C   0  0  0  0  0  0  0  0  0  0  0  0
    2.9953   -0.5701    0.0000 C   0  0  0  0  0  0  0  0  0  0  0  0
    2.2106   -0.8250    0.0000 C   0  0  0  0  0  0  0  0  0  0  0  0
    1.4962   -0.4125    0.0000 C   0  0  0  0  0  0  0  0  0  0  0  0
    0.7817   -0.8250    0.0000 C   0  0  0  0  0  0  0  0  0  0  0  0
    0.7817   -1.6500    0.0000 C   0  0  0  0  0  0  0  0  0  0  0  0
    1.4962   -2.0625    0.0000 C   0  0  0  0  0  0  0  0  0  0  0  0
    2.2106   -1.6500    0.0000 C   0  0  0  0  0  0  0  0  0  0  0  0
    3.2502    0.2146    0.0000 C   0  0  0  0  0  0  0  0  0  0  0  0
    3.5051    0.9992    0.0000 N   0  0  0  0  0  0  0  0  0  0  0  0
   -1.3617    0.4125    0.0000 C   0  0  0  0  0  0  0  0  0  0  0  0
   -0.6472    0.8250    0.0000 C   0  0  0  0  0  0  0  0  0  0  0  0
    0.0672    0.4125    0.0000 C   0  0  0  0  0  0  0  0  0  0  0  0
    0.0672   -0.4125    0.0000 C   0  0  0  0  0  0  0  0  0  0  0  0
   -0.6472   -0.8250    0.0000 C   0  0  0  0  0  0  0  0  0  0  0  0
   -1.3617   -0.4125    0.0000 C   0  0  0  0  0  0  0  0  0  0  0  0
   -2.0762    0.8250    0.0000 C   0  0  0  0  0  0  0  0  0  0  0  0
   -2.7907    0.4125    0.0000 C   0  0  0  0  0  0  0  0  0  0  0  0
   -3.5051    0.8250    0.0000 C   0  0  0  0  0  0  0  0  0  0  0  0
   -3.5051    1.6500    0.0000 C   0  0  0  0  0  0  0  0  0  0  0  0
   -2.7907    2.0625    0.0000 C   0  0  0  0  0  0  0  0  0  0  0  0
   -2.0762    1.6500    0.0000 C   0  0  0  0  0  0  0  0  0  0  0  0
   -1.3617    2.0625    0.0000 O   0  0  0  0  0  0  0  0  0  0  0  0
   -2.7907   -0.4125    0.0000 O   0  0  0  0  0  0  0  0  0  0  0  0
  1  2  1  0      
  2  3  2  0      
  3  4  1  0      
  4  5  1  0      
  5  6  2  0      
  6  7  1  0      
  7  8  2  0      
  8  9  1  0      
  1  9  1  0      
  4  9  2  0      
 10 11  3  0      
  3 10  1  0      
 12 13  1  0      
 13 14  2  0      
 14 15  1  0      
 15 16  2  0      
 16 17  1  0      
 12 17  2  0      
 18 19  1  0      
 19 20  2  0      
 20 21  1  0      
 21 22  2  0      
 22 23  1  0      
 18 23  2  0      
 12 18  1  0      
 23 24  1  0      
 19 25  1  0      
  6 15  1  0      
M  END

>  <RackCode>
HYCPK72335

>  <Cat. No.>
HY-W058849

>  <Product Name>
MT 63-78

>  <ROW>
E

>  <COLUMN>
9

>  <CAS No.>
1179347-65-9

>  <MWt>
326.35

>  <Target>
AMPK; Apoptosis; mTOR

>  <Saltdate>
Free Base

>  <Smiles>
N#CC1=CNC2=C1C=C(C3=CC=C(C4=C(O)C=CC=C4O)C=C3)C=C2

>  <Solvent>
DMSO Solution

>  <Batch No.>
99919

>  <Quantity>
10mM  * 50uL

>  <Pathway>
Apoptosis; Epigenetics; PI3K/Akt/mTOR

>  <Synonyms>


>  <Formula>
C21H14N2O2

>  <Research_Area>
Cancer

>  <Clinical_Information>
No Development Reported

>  <SUPPLIER>
MedChemExpress

$$$$
Untitled Document
  ChemDraw09081609372D

 31 34  0  0  0  0  0  0  0  0999 V2000
    0.5647   -1.6053    0.0000 C   0  0  0  0  0  0  0  0  0  0  0  0
    0.0798   -2.2727    0.0000 N   0  0  0  0  0  0  0  0  0  0  0  0
   -0.7048   -2.0178    0.0000 C   0  0  0  0  0  0  0  0  0  0  0  0
   -0.7048   -1.1928    0.0000 C   0  0  0  0  0  0  0  0  0  0  0  0
    0.0798   -0.9379    0.0000 N   0  0  0  0  0  0  0  0  0  0  0  0
   -1.4193   -2.4303    0.0000 C   0  0  0  0  0  0  0  0  0  0  0  0
   -2.1338   -2.0178    0.0000 C   0  0  0  0  0  0  0  0  0  0  0  0
   -2.1338   -1.1928    0.0000 C   0  0  0  0  0  0  0  0  0  0  0  0
   -1.4193   -0.7803    0.0000 C   0  0  0  0  0  0  0  0  0  0  0  0
   -2.8483   -2.4303    0.0000 C   0  0  0  0  0  0  0  0  0  0  0  0
   -2.8483   -3.2553    0.0000 O   0  0  0  0  0  0  0  0  0  0  0  0
   -3.5627   -2.0178    0.0000 O   0  0  0  0  0  0  0  0  0  0  0  0
    0.3347   -0.1532    0.0000 C   0  0  0  0  0  0  0  0  0  0  0  0
   -0.2173    0.4599    0.0000 C   0  0  0  0  0  0  0  0  0  0  0  0
    0.0376    1.2445    0.0000 C   0  0  0  0  0  0  0  0  0  0  0  0
   -0.5144    1.8576    0.0000 C   0  0  0  0  0  0  0  0  0  0  0  0
   -0.2595    2.6422    0.0000 C   0  0  0  0  0  0  0  0  0  0  0  0
   -0.8115    3.2553    0.0000 C   0  0  0  0  0  0  0  0  0  0  0  0
   -1.6185    3.0838    0.0000 C   0  0  0  0  0  0  0  0  0  0  0  0
   -1.8734    2.2991    0.0000 C   0  0  0  0  0  0  0  0  0  0  0  0
   -1.3214    1.6861    0.0000 C   0  0  0  0  0  0  0  0  0  0  0  0
    1.3897   -1.6053    0.0000 N   0  0  0  0  0  0  0  0  0  0  0  0
    1.8022   -0.8908    0.0000 C   0  0  0  0  0  0  0  0  0  0  0  0
    2.6272   -0.8908    0.0000 C   0  0  0  0  0  0  0  0  0  0  0  0
    3.0397   -0.1764    0.0000 C   0  0  0  0  0  0  0  0  0  0  0  0
    3.8647   -0.1764    0.0000 C   0  0  0  0  0  0  0  0  0  0  0  0
    4.2772   -0.8908    0.0000 C   0  0  0  0  0  0  0  0  0  0  0  0
    3.8647   -1.6053    0.0000 C   0  0  0  0  0  0  0  0  0  0  0  0
    3.0397   -1.6053    0.0000 C   0  0  0  0  0  0  0  0  0  0  0  0
    1.3897   -0.1764    0.0000 O   0  0  0  0  0  0  0  0  0  0  0  0
   -4.2772   -2.4303    0.0000 C   0  0  0  0  0  0  0  0  0  0  0  0
  1  2  2  0      
  2  3  1  0      
  3  4  1  0      
  4  5  1  0      
  1  5  1  0      
  6  7  1  0      
  7  8  2  0      
  8  9  1  0      
  4  9  2  0      
  3  6  2  0      
 10 11  2  0      
 10 12  1  0      
  7 10  1  0      
 13 14  1  0      
 14 15  1  0      
 16 17  1  0      
 17 18  2  0      
 18 19  1  0      
 19 20  2  0      
 20 21  1  0      
 16 21  2  0      
 15 16  1  0      
  5 13  1  0      
 23 24  1  0      
 24 25  1  0      
 25 26  2  0      
 26 27  1  0      
 27 28  2  0      
 28 29  1  0      
 24 29  2  0      
 23 30  2  0      
 22 23  1  0      
  1 22  1  0      
 12 31  1  0      
M  END

>  <RackCode>
HYCPK72335

>  <Cat. No.>
HY-16705

>  <Product Name>
BRD4770

>  <ROW>
F

>  <COLUMN>
9

>  <CAS No.>
1374601-40-7

>  <MWt>
413.47

>  <Target>
Histone Methyltransferase

>  <Saltdate>
Free Base

>  <Smiles>
O=C(C1=CC=C2C(N=C(NC(C3=CC=CC=C3)=O)N2CCCC4=CC=CC=C4)=C1)OC

>  <Solvent>
DMSO Solution

>  <Batch No.>
120340

>  <Quantity>
10mM  * 50uL

>  <Pathway>
Epigenetics

>  <Synonyms>


>  <Formula>
C25H23N3O3

>  <Research_Area>
Cancer

>  <Clinical_Information>
No Development Reported

>  <SUPPLIER>
MedChemExpress

$$$$
Untitled Document
  ChemDraw10211611122D

 26 29  0  0  0  0  0  0  0  0999 V2000
    1.8933    1.2169    0.0000 C   0  0  0  0  0  0  0  0  0  0  0  0
    1.8933    0.3919    0.0000 N   0  0  0  0  0  0  0  0  0  0  0  0
    1.1789   -0.0206    0.0000 C   0  0  0  0  0  0  0  0  0  0  0  0
    0.4644    0.3919    0.0000 C   0  0  0  0  0  0  0  0  0  0  0  0
    0.4644    1.2169    0.0000 C   0  0  0  0  0  0  0  0  0  0  0  0
    1.1789    1.6294    0.0000 N   0  0  0  0  0  0  0  0  0  0  0  0
    1.1789   -0.8456    0.0000 O   0  0  0  0  0  0  0  0  0  0  0  0
    2.6078    1.6294    0.0000 S   0  0  0  0  0  0  0  0  0  0  0  0
   -0.2501    1.6294    0.0000 C   0  0  0  0  0  0  0  0  0  0  0  0
   -0.9645    1.2169    0.0000 C   0  0  0  0  0  0  0  0  0  0  0  0
   -1.6790    1.6294    0.0000 C   0  0  0  0  0  0  0  0  0  0  0  0
   -1.6790    2.4544    0.0000 C   0  0  0  0  0  0  0  0  0  0  0  0
   -0.9645    2.8669    0.0000 C   0  0  0  0  0  0  0  0  0  0  0  0
   -0.2501    2.4544    0.0000 C   0  0  0  0  0  0  0  0  0  0  0  0
   -0.4644   -0.1444    0.0000 C   0  0  0  0  0  0  0  0  0  0  0  0
   -0.4644   -1.2169    0.0000 C   0  0  0  0  0  0  0  0  0  0  0  0
    0.2501   -1.6294    0.0000 C   0  0  0  0  0  0  0  0  0  0  0  0
    0.2501   -2.4544    0.0000 C   0  0  0  0  0  0  0  0  0  0  0  0
   -0.4644   -2.8669    0.0000 C   0  0  0  0  0  0  0  0  0  0  0  0
   -1.1789   -2.4544    0.0000 C   0  0  0  0  0  0  0  0  0  0  0  0
   -1.8933   -2.8669    0.0000 C   0  0  0  0  0  0  0  0  0  0  0  0
   -2.6078   -2.4544    0.0000 C   0  0  0  0  0  0  0  0  0  0  0  0
   -2.6078   -1.6294    0.0000 C   0  0  0  0  0  0  0  0  0  0  0  0
   -1.8933   -1.2169    0.0000 C   0  0  0  0  0  0  0  0  0  0  0  0
   -1.1789   -1.6294    0.0000 C   0  0  0  0  0  0  0  0  0  0  0  0
    0.9645   -1.2169    0.0000 O   0  0  0  0  0  0  0  0  0  0  0  0
  1  2  1  0      
  2  3  1  0      
  3  4  1  0      
  4  5  2  0      
  5  6  1  0      
  1  6  1  0      
  3  7  2  0      
  1  8  2  0      
  9 10  1  0      
 10 11  2  0      
 11 12  1  0      
 12 13  2  0      
 13 14  1  0      
  9 14  2  0      
  5  9  1  0      
 16 17  1  0      
 17 18  2  0      
 18 19  1  0      
 19 20  2  0      
 20 21  1  0      
 21 22  2  0      
 22 23  1  0      
 23 24  2  0      
 24 25  1  0      
 16 25  2  0      
 20 25  1  0      
 17 26  1  0      
 15 16  1  0      
  4 15  1  0      
M  END

>  <RackCode>
HYCPK72335

>  <Cat. No.>
HY-100732

>  <Product Name>
Cambinol

>  <ROW>
G

>  <COLUMN>
9

>  <CAS No.>
14513-15-6

>  <MWt>
360.43

>  <Target>
Apoptosis; Phospholipase; Sirtuin

>  <Saltdate>
Free Base

>  <Smiles>
O=C(C(CC1=C2C=CC=CC2=CC=C1O)=C(C3=CC=CC=C3)N4)NC4=S

>  <Solvent>
DMSO Solution

>  <Batch No.>
113127

>  <Quantity>
10mM  * 50uL

>  <Pathway>
Apoptosis; Cell Cycle/DNA Damage; Epigenetics; Metabolic Enzyme/Protease

>  <Synonyms>


>  <Formula>
C21H16N2O2S

>  <Research_Area>
Cancer

>  <Clinical_Information>
No Development Reported

>  <SUPPLIER>
MedChemExpress

$$$$
Untitled Document
  ChemDraw11121816132D

 19 20  0  0  0  0  0  0  0  0999 V2000
    1.2196    1.9745    0.0000 N   0  0  0  0  0  0  0  0  0  0  0  0
    2.0265    2.1460    0.0000 N   0  0  0  0  0  0  0  0  0  0  0  0
    2.4390    1.4315    0.0000 N   0  0  0  0  0  0  0  0  0  0  0  0
    1.8870    0.8184    0.0000 N   0  0  0  0  0  0  0  0  0  0  0  0
    1.1333    1.1540    0.0000 C   0  0  0  0  0  0  0  0  0  0  0  0
    0.4189    0.7415    0.0000 C   0  0  0  0  0  0  0  0  0  0  0  0
    0.4189   -0.0835    0.0000 C   0  0  0  0  0  0  0  0  0  0  0  0
   -0.2956   -0.4960    0.0000 C   0  0  0  0  0  0  0  0  0  0  0  0
   -1.0101   -0.0835    0.0000 C   0  0  0  0  0  0  0  0  0  0  0  0
   -1.0101    0.7415    0.0000 C   0  0  0  0  0  0  0  0  0  0  0  0
   -0.2956    1.1540    0.0000 C   0  0  0  0  0  0  0  0  0  0  0  0
   -1.7246    1.1540    0.0000 C   0  0  0  0  0  0  0  0  0  0  0  0
   -1.7246    1.9790    0.0000 F   0  0  0  0  0  0  0  0  0  0  0  0
   -2.4390    1.5665    0.0000 F   0  0  0  0  0  0  0  0  0  0  0  0
   -2.4390    0.7415    0.0000 F   0  0  0  0  0  0  0  0  0  0  0  0
   -0.2956   -1.3210    0.0000 C   0  0  0  0  0  0  0  0  0  0  0  0
   -1.0101   -1.7335    0.0000 F   0  0  0  0  0  0  0  0  0  0  0  0
   -0.2956   -2.1460    0.0000 F   0  0  0  0  0  0  0  0  0  0  0  0
    0.4189   -1.7335    0.0000 F   0  0  0  0  0  0  0  0  0  0  0  0
  1  2  1  0      
  2  3  2  0      
  3  4  1  0      
  4  5  1  0      
  1  5  2  0      
  6  7  1  0      
  7  8  2  0      
  8  9  1  0      
  9 10  2  0      
 10 11  1  0      
  6 11  2  0      
 12 13  1  0      
 12 14  1  0      
 12 15  1  0      
 10 12  1  0      
 16 17  1  0      
 16 18  1  0      
 16 19  1  0      
  8 16  1  0      
  5  6  1  0      
M  END

>  <RackCode>
HYCPK72335

>  <Cat. No.>
HY-120087

>  <Product Name>
KG-548

>  <ROW>
H

>  <COLUMN>
9

>  <CAS No.>
175205-09-1

>  <MWt>
282.15

>  <Target>
HIF/HIF Prolyl-Hydroxylase

>  <Saltdate>


>  <Smiles>
FC(C1=CC(C(F)(F)F)=CC(C2=NN=NN2)=C1)(F)F

>  <Solvent>
DMSO Solution

>  <Batch No.>
262475

>  <Quantity>
10mM  * 50uL

>  <Pathway>
Metabolic Enzyme/Protease

>  <Synonyms>


>  <Formula>
C9H4F6N4

>  <Research_Area>
Cancer

>  <Clinical_Information>
No Development Reported

>  <SUPPLIER>
MedChemExpress

$$$$
Untitled Document
  ChemDraw05101917262D

 38 41  0  0  0  0  0  0  0  0999 V2000
   -5.9338   -0.9292    0.0000 N   0  0  0  0  0  0  0  0  0  0  0  0
   -5.2193   -1.3417    0.0000 C   0  0  0  0  0  0  0  0  0  0  0  0
   -4.5049   -0.9292    0.0000 S   0  0  0  0  0  0  0  0  0  0  0  0
   -3.7904   -1.3417    0.0000 C   0  0  0  0  0  0  0  0  0  0  0  0
   -3.0759   -0.9292    0.0000 C   0  0  0  0  0  0  0  0  0  0  0  0
   -2.3615   -1.3417    0.0000 C   0  0  0  0  0  0  0  0  0  0  0  0
   -1.6470   -0.9292    0.0000 N   0  0  0  0  0  0  0  0  0  0  0  0
   -1.5608   -0.1088    0.0000 C   0  0  0  0  0  0  0  0  0  0  0  0
   -0.7538    0.0628    0.0000 C   0  0  0  0  0  0  0  0  0  0  0  0
   -0.4182    0.8164    0.0000 C   0  0  0  0  0  0  0  0  0  0  0  0
    0.3887    0.9880    0.0000 C   0  0  0  0  0  0  0  0  0  0  0  0
    1.0018    0.4359    0.0000 C   0  0  0  0  0  0  0  0  0  0  0  0
    0.9156   -0.3845    0.0000 C   0  0  0  0  0  0  0  0  0  0  0  0
    1.6693   -0.7201    0.0000 N   0  0  0  0  0  0  0  0  0  0  0  0
    1.8408   -1.5271    0.0000 C   0  0  0  0  0  0  0  0  0  0  0  0
    2.2213   -0.1070    0.0000 C   0  0  0  0  0  0  0  0  0  0  0  0
    1.8088    0.6075    0.0000 C   0  0  0  0  0  0  0  0  0  0  0  0
    2.2213    1.3219    0.0000 C   0  0  0  0  0  0  0  0  0  0  0  0
    3.0463    1.3219    0.0000 C   0  0  0  0  0  0  0  0  0  0  0  0
    3.4588    0.6075    0.0000 C   0  0  0  0  0  0  0  0  0  0  0  0
    3.0463   -0.1070    0.0000 C   0  0  0  0  0  0  0  0  0  0  0  0
    0.4750    1.8084    0.0000 C   0  0  0  0  0  0  0  0  0  0  0  0
   -0.2787    2.1440    0.0000 N   0  0  0  0  0  0  0  0  0  0  0  0
   -0.8307    1.5309    0.0000 C   0  0  0  0  0  0  0  0  0  0  0  0
   -1.6512    1.6171    0.0000 O   0  0  0  0  0  0  0  0  0  0  0  0
    1.1895    2.2209    0.0000 O   0  0  0  0  0  0  0  0  0  0  0  0
   -0.3413   -0.6517    0.0000 C   0  0  0  0  0  0  0  0  0  0  0  0
   -0.8933   -1.2648    0.0000 C   0  0  0  0  0  0  0  0  0  0  0  0
   -0.6384   -2.0494    0.0000 C   0  0  0  0  0  0  0  0  0  0  0  0
    0.1686   -2.2209    0.0000 C   0  0  0  0  0  0  0  0  0  0  0  0
    0.7206   -1.6079    0.0000 C   0  0  0  0  0  0  0  0  0  0  0  0
    0.4657   -0.8232    0.0000 C   0  0  0  0  0  0  0  0  0  0  0  0
   -5.2193   -2.1667    0.0000 N   0  0  0  0  0  0  0  0  0  0  0  0
    4.2838   -0.0000    0.0000 C   0  0  0  0  0  0  0  0  0  0  0  0
    5.1088   -0.0000    0.0000 S   0  0  0  0  0  0  0  0  0  0  0  0
    5.1088   -0.8250    0.0000 O   0  0  0  0  0  0  0  0  0  0  0  0
    5.9338   -0.0000    0.0000 O   0  0  0  0  0  0  0  0  0  0  0  0
    5.1088    0.8250    0.0000 O   0  0  0  0  0  0  0  0  0  0  0  0
  1  2  1  0      
  2  3  1  0      
  3  4  1  0      
  4  5  1  0      
  5  6  1  0      
  6  7  1  0      
  7  8  1  0      
  8  9  2  0      
  9 10  1  0      
 10 11  2  0      
 11 12  1  0      
 12 13  2  0      
 13 14  1  0      
 14 15  1  0      
 14 16  1  0      
 16 17  2  0      
 12 17  1  0      
 17 18  1  0      
 18 19  2  0      
 19 20  1  0      
 20 21  2  0      
 16 21  1  0      
 11 22  1  0      
 22 23  1  0      
 23 24  1  0      
 10 24  1  0      
 24 25  2  0      
 22 26  2  0      
  9 27  1  0      
 27 28  2  0      
  7 28  1  0      
 28 29  1  0      
 29 30  2  0      
 30 31  1  0      
 31 32  2  0      
 27 32  1  0      
  2 33  2  0      
 34 35  1  0      
 35 36  2  0      
 35 37  1  0      
 35 38  2  0      
M  END

>  <RackCode>
HYCPK72335

>  <Cat. No.>
HY-13866

>  <Product Name>
Ro 31-8220 (mesylate)

>  <ROW>
I

>  <COLUMN>
9

>  <CAS No.>
138489-18-6

>  <MWt>
553.65

>  <Target>
PKC

>  <Saltdate>
Mesylate

>  <Smiles>
NC(SCCCN1C=C(C2=C(C3=CN(C)C4=C3C=CC=C4)C(NC2=O)=O)C5=C1C=CC=C5)=N.CS(=O)(O)=O

>  <Solvent>
DMSO Solution

>  <Batch No.>
67020

>  <Quantity>
10mM  * 50uL

>  <Pathway>
Epigenetics; TGF-beta/Smad

>  <Synonyms>
Ro 31-8220 methanesulfonate; Bisindolylmaleimide IX mesylate

>  <Formula>
C26H27N5O5S2

>  <Research_Area>
Neurological Disease; Cardiovascular Disease; Cancer

>  <Clinical_Information>
No Development Reported

>  <SUPPLIER>
MedChemExpress

$$$$
Untitled Document
  ChemDraw01022015042D

 38 42  0  0  0  0  0  0  0  0999 V2000
   -3.5637   -0.4125    0.0000 C   0  0  0  0  0  0  0  0  0  0  0  0
   -4.2782   -0.8250    0.0000 C   0  0  0  0  0  0  0  0  0  0  0  0
   -4.2782   -1.6500    0.0000 C   0  0  0  0  0  0  0  0  0  0  0  0
   -3.5637   -2.0625    0.0000 C   0  0  0  0  0  0  0  0  0  0  0  0
   -2.8493   -1.6500    0.0000 C   0  0  0  0  0  0  0  0  0  0  0  0
   -2.8493   -0.8250    0.0000 C   0  0  0  0  0  0  0  0  0  0  0  0
   -3.5637    0.4125    0.0000 O   0  0  0  0  0  0  0  0  0  0  0  0
   -2.8493    0.8250    0.0000 C   0  0  0  0  0  0  0  0  0  0  0  0
   -4.9927   -2.0625    0.0000 O   0  0  0  0  0  0  0  0  0  0  0  0
   -4.9927   -2.8875    0.0000 C   0  0  0  0  0  0  0  0  0  0  0  0
   -2.1348   -2.0625    0.0000 C   0  0  0  0  0  0  0  0  0  0  0  0
   -1.4203   -1.6500    0.0000 N   0  0  0  0  0  0  0  0  0  0  0  0
   -0.7059   -2.0625    0.0000 C   0  0  0  0  0  0  0  0  0  0  0  0
    0.0086   -1.6500    0.0000 C   0  0  0  0  0  0  0  0  0  0  0  0
    0.0086   -0.8250    0.0000 C   0  0  0  0  0  0  0  0  0  0  0  0
   -0.7059   -0.4125    0.0000 C   0  0  0  0  0  0  0  0  0  0  0  0
   -1.4203   -0.8250    0.0000 C   0  0  0  0  0  0  0  0  0  0  0  0
   -0.7059   -2.8875    0.0000 O   0  0  0  0  0  0  0  0  0  0  0  0
    0.7231   -2.0625    0.0000 C   0  0  0  0  0  0  0  0  0  0  0  0
    1.4376   -1.6500    0.0000 C   0  0  0  0  0  0  0  0  0  0  0  0
    1.4376   -0.8250    0.0000 C   0  0  0  0  0  0  0  0  0  0  0  0
    0.7231   -0.4125    0.0000 C   0  0  0  0  0  0  0  0  0  0  0  0
    0.7231    0.4125    0.0000 C   0  0  0  0  0  0  0  0  0  0  0  0
    1.4376    0.8250    0.0000 C   0  0  0  0  0  0  0  0  0  0  0  0
    1.4376    1.6500    0.0000 C   0  0  0  0  0  0  0  0  0  0  0  0
    0.7231    2.0625    0.0000 C   0  0  0  0  0  0  0  0  0  0  0  0
    0.0086    1.6500    0.0000 C   0  0  0  0  0  0  0  0  0  0  0  0
    0.0086    0.8250    0.0000 C   0  0  0  0  0  0  0  0  0  0  0  0
    0.7231    2.8875    0.0000 F   0  0  0  0  0  0  0  0  0  0  0  0
    2.1520    0.4125    0.0000 C   0  0  0  0  0  0  0  0  0  0  0  0
    2.1520   -2.0625    0.0000 C   0  0  0  0  0  0  0  0  0  0  0  0
    2.8665   -1.6500    0.0000 N   0  0  0  0  0  0  0  0  0  0  0  0
    3.6202   -1.9856    0.0000 C   0  0  0  0  0  0  0  0  0  0  0  0
    4.1722   -1.3725    0.0000 N   0  0  0  0  0  0  0  0  0  0  0  0
    3.7597   -0.6580    0.0000 C   0  0  0  0  0  0  0  0  0  0  0  0
    2.9527   -0.8295    0.0000 C   0  0  0  0  0  0  0  0  0  0  0  0
    4.9927   -1.4587    0.0000 C   0  0  0  0  0  0  0  0  0  0  0  0
    3.7917   -2.7925    0.0000 N   0  0  0  0  0  0  0  0  0  0  0  0
  1  2  2  0      
  2  3  1  0      
  3  4  2  0      
  4  5  1  0      
  5  6  2  0      
  6  1  1  0      
  1  7  1  0      
  7  8  1  0      
  3  9  1  0      
  9 10  1  0      
  5 11  1  0      
 11 12  1  0      
 12 13  1  0      
 13 14  1  0      
 14 15  2  0      
 15 16  1  0      
 16 17  1  0      
 17 12  1  0      
 13 18  2  0      
 14 19  1  0      
 19 20  2  0      
 20 21  1  0      
 21 22  2  0      
 22 15  1  0      
 22 23  1  0      
 23 24  2  0      
 24 25  1  0      
 25 26  2  0      
 26 27  1  0      
 27 28  2  0      
 28 23  1  0      
 26 29  1  0      
 24 30  1  0      
 20 31  1  0      
 31 32  1  0      
 32 33  1  0      
 33 34  1  0      
 34 35  1  0      
 35 36  2  0      
 36 32  1  0      
 34 37  1  0      
 33 38  2  0      
M  END

>  <RackCode>
HYCPK72335

>  <Cat. No.>
HY-133121

>  <Product Name>
WDR5-IN-1

>  <ROW>
J

>  <COLUMN>
9

>  <CAS No.>
2408842-51-1

>  <MWt>
514.59

>  <Target>
Apoptosis; Histone Methyltransferase

>  <Saltdate>


>  <Smiles>
COC1=CC(OC)=CC(CN2C(C(C=C(CN3C(N(C)C=C3)=N)C=C4C5=C(C)C=C(F)C=C5)=C4CC2)=O)=C1

>  <Solvent>
DMSO Solution

>  <Batch No.>
117206

>  <Quantity>
10mM  * 50uL

>  <Pathway>
Apoptosis; Epigenetics

>  <Synonyms>


>  <Formula>
C30H31FN4O3

>  <Research_Area>
Cancer

>  <Clinical_Information>
No Development Reported

>  <SUPPLIER>
MedChemExpress

$$$$
Untitled Document
  ChemDraw09161910512D

 23 24  0  0  0  0  0  0  0  0999 V2000
   -0.2467   -0.2062    0.0000 C   0  0  0  0  0  0  0  0  0  0  0  0
   -1.0717   -0.2062    0.0000 C   0  0  0  0  0  0  0  0  0  0  0  0
   -0.6592    0.5082    0.0000 C   0  0  0  0  0  0  0  0  0  0  0  0
    5.4691   -0.2062    0.0000 C   0  0  0  0  0  0  0  0  0  0  0  0
    4.7546   -0.6187    0.0000 C   0  0  0  0  0  0  0  0  0  0  0  0
    4.0401   -0.2062    0.0000 C   0  0  0  0  0  0  0  0  0  0  0  0
    3.3256   -0.6187    0.0000 C   0  0  0  0  0  0  0  0  0  0  0  0
    2.6112   -0.2062    0.0000 C   0  0  0  0  0  0  0  0  0  0  0  0
    1.8967   -0.6187    0.0000 C   0  0  0  0  0  0  0  0  0  0  0  0
    1.1822   -0.2062    0.0000 C   0  0  0  0  0  0  0  0  0  0  0  0
    0.4678   -0.6187    0.0000 C   0  0  0  0  0  0  0  0  0  0  0  0
    5.4691    0.6187    0.0000 O   0  0  0  0  0  0  0  0  0  0  0  0
    6.1835   -0.6187    0.0000 O   0  0  0  0  0  0  0  0  0  0  0  0
   -1.7862   -0.6187    0.0000 C   0  0  0  0  0  0  0  0  0  0  0  0
   -2.5006   -0.2062    0.0000 C   0  0  0  0  0  0  0  0  0  0  0  0
   -3.3256   -0.2062    0.0000 C   0  0  0  0  0  0  0  0  0  0  0  0
   -2.9131    0.5082    0.0000 C   0  0  0  0  0  0  0  0  0  0  0  0
   -4.0401   -0.6187    0.0000 C   0  0  0  0  0  0  0  0  0  0  0  0
   -4.7546   -0.2062    0.0000 C   0  0  0  0  0  0  0  0  0  0  0  0
   -5.4691   -0.6187    0.0000 C   0  0  0  0  0  0  0  0  0  0  0  0
   -6.1835   -0.2062    0.0000 C   0  0  0  0  0  0  0  0  0  0  0  0
   -6.8980   -0.6187    0.0000 C   0  0  0  0  0  0  0  0  0  0  0  0
    6.8980   -0.2062    0.0000 C   0  0  0  0  0  0  0  0  0  0  0  0
  1  2  1  0      
  2  3  1  0      
  1  3  1  0      
  4  5  1  0      
  5  6  1  0      
  6  7  1  0      
  7  8  1  0      
  8  9  1  0      
  9 10  1  0      
 10 11  1  0      
  4 12  2  0      
  4 13  1  0      
  1 11  1  0      
 15 16  1  0      
 16 17  1  0      
 15 17  1  0      
 18 19  1  0      
 19 20  1  0      
 20 21  1  0      
 21 22  1  0      
 16 18  1  0      
 14 15  1  0      
  2 14  1  0      
 13 23  1  0      
M  END

>  <RackCode>
HYCPK72335

>  <Cat. No.>
HY-108599A

>  <Product Name>
DCPLA-ME

>  <ROW>
K

>  <COLUMN>
9

>  <CAS No.>
56687-67-3

>  <MWt>
322.53

>  <Target>
PKC

>  <Saltdate>


>  <Smiles>
O=C(OC)CCCCCCCC1C(CC2C(CCCCC)C2)C1

>  <Solvent>
DMSO Solution

>  <Batch No.>
47136

>  <Quantity>
10mM  * 50uL

>  <Pathway>
Epigenetics; TGF-beta/Smad

>  <Synonyms>
DCPLA methyl ester

>  <Formula>
C21H38O2

>  <Research_Area>
Neurological Disease

>  <Clinical_Information>
No Development Reported

>  <SUPPLIER>
MedChemExpress

$$$$
Untitled Document
  ChemDraw08092110172D

 26 28  0  0  0  0  0  0  0  0999 V2000
   -0.9547   -2.8117    0.0000 O   0  0  0  0  0  0  0  0  0  0  0  0
   -0.7832   -2.0047    0.0000 S   0  0  0  0  0  0  0  0  0  0  0  0
   -0.1701   -2.5568    0.0000 O   0  0  0  0  0  0  0  0  0  0  0  0
   -0.2983   -1.3373    0.0000 N   0  0  0  0  0  0  0  0  0  0  0  0
   -0.7832   -0.6698    0.0000 C   0  0  0  0  0  0  0  0  0  0  0  0
   -0.5282    0.1148    0.0000 N   0  0  0  0  0  0  0  0  0  0  0  0
    0.2787    0.2863    0.0000 C   0  0  0  0  0  0  0  0  0  0  0  0
    0.8308   -0.3268    0.0000 C   0  0  0  0  0  0  0  0  0  0  0  0
    1.6377   -0.1553    0.0000 C   0  0  0  0  0  0  0  0  0  0  0  0
    1.8927    0.6294    0.0000 C   0  0  0  0  0  0  0  0  0  0  0  0
    1.3406    1.2425    0.0000 C   0  0  0  0  0  0  0  0  0  0  0  0
    0.5337    1.0709    0.0000 C   0  0  0  0  0  0  0  0  0  0  0  0
    1.5956    2.0271    0.0000 C   0  0  0  0  0  0  0  0  0  0  0  0
    1.8505    2.8117    0.0000 F   0  0  0  0  0  0  0  0  0  0  0  0
    1.0435    2.6402    0.0000 F   0  0  0  0  0  0  0  0  0  0  0  0
    2.4026    2.1986    0.0000 F   0  0  0  0  0  0  0  0  0  0  0  0
    2.1898   -0.7684    0.0000 C   0  0  0  0  0  0  0  0  0  0  0  0
    1.9348   -1.5530    0.0000 F   0  0  0  0  0  0  0  0  0  0  0  0
    2.7418   -1.3815    0.0000 F   0  0  0  0  0  0  0  0  0  0  0  0
    2.9967   -0.5968    0.0000 F   0  0  0  0  0  0  0  0  0  0  0  0
   -1.5678   -0.9248    0.0000 C   0  0  0  0  0  0  0  0  0  0  0  0
   -2.2823   -0.5123    0.0000 C   0  0  0  0  0  0  0  0  0  0  0  0
   -2.9967   -0.9248    0.0000 C   0  0  0  0  0  0  0  0  0  0  0  0
   -2.9967   -1.7498    0.0000 C   0  0  0  0  0  0  0  0  0  0  0  0
   -2.2823   -2.1623    0.0000 C   0  0  0  0  0  0  0  0  0  0  0  0
   -1.5678   -1.7498    0.0000 C   0  0  0  0  0  0  0  0  0  0  0  0
  1  2  2  0      
  2  3  2  0      
  2  4  1  0      
  4  5  2  0      
  5  6  1  0      
  6  7  1  0      
  7  8  1  0      
  8  9  2  0      
  9 10  1  0      
 10 11  2  0      
 11 12  1  0      
  7 12  2  0      
 11 13  1  0      
 13 14  1  0      
 13 15  1  0      
 13 16  1  0      
  9 17  1  0      
 17 18  1  0      
 17 19  1  0      
 17 20  1  0      
  5 21  1  0      
 21 22  1  0      
 22 23  2  0      
 23 24  1  0      
 24 25  2  0      
 25 26  1  0      
 21 26  2  0      
  2 26  1  0      
M  END

>  <RackCode>
HYCPK72335

>  <Cat. No.>
HY-139287

>  <Product Name>
M1002

>  <ROW>
L

>  <COLUMN>
9

>  <CAS No.>
823830-85-9

>  <MWt>
394.29

>  <Target>
HIF/HIF Prolyl-Hydroxylase

>  <Saltdate>


>  <Smiles>
O=S1(N=C(C2=C1C=CC=C2)NC3=CC(C(F)(F)F)=CC(C(F)(F)F)=C3)=O

>  <Solvent>
DMSO Solution

>  <Batch No.>
262284

>  <Quantity>
10mM  * 50uL

>  <Pathway>
Metabolic Enzyme/Protease

>  <Synonyms>


>  <Formula>
C15H8F6N2O2S

>  <Research_Area>
Cancer

>  <Clinical_Information>
No Development Reported

>  <SUPPLIER>
MedChemExpress

$$$$
Untitled Document
  ChemDraw04012415272D

 64 72  0  0  0  0  0  0  0  0999 V2000
    3.2726   -0.4167    0.0000 N   0  0  0  0  0  0  0  0  0  0  0  0
    3.2726    0.4065    0.0000 C   0  0  0  0  0  0  0  0  0  0  0  0
    2.5597   -0.8283    0.0000 C   0  0  0  0  0  0  0  0  0  0  0  0
    3.9875    0.8182    0.0000 C   0  0  0  0  0  0  0  0  0  0  0  0
    2.5556    0.8182    0.0000 N   0  0  0  0  0  0  0  0  0  0  0  0
    1.8066   -0.4877    0.0000 N   0  0  0  0  0  0  0  0  0  0  0  0
    2.4793   -1.6395    0.0000 C   0  0  0  0  0  0  0  0  0  0  0  0
    5.4175    0.8182    0.0000 C   0  0  0  0  0  0  0  0  0  0  0  0
    3.9875    1.6440    0.0000 C   0  0  0  0  0  0  0  0  0  0  0  0
    2.5556    1.6440    0.0000 C   0  0  0  0  0  0  0  0  0  0  0  0
    1.6246    0.3151    0.0000 C   0  0  0  0  0  0  0  0  0  0  0  0
    1.2582   -1.1386    0.0000 N   0  0  0  0  0  0  0  0  0  0  0  0
    1.6682   -1.8330    0.0000 C   0  0  0  0  0  0  0  0  0  0  0  0
    5.4175    1.6440    0.0000 C   0  0  0  0  0  0  0  0  0  0  0  0
    6.1326    0.4065    0.0000 C   0  0  0  0  0  0  0  0  0  0  0  0
    4.7026    2.0578    0.0000 N   0  0  0  0  0  0  0  0  0  0  0  0
    3.2726    2.0578    0.0000 N   0  0  0  0  0  0  0  0  0  0  0  0
    1.8427    2.0556    0.0000 C   0  0  0  0  0  0  0  0  0  0  0  0
    0.8381    0.5588    0.0000 C   0  0  0  0  0  0  0  0  0  0  0  0
    1.3461   -2.5906    0.0000 C   0  0  0  0  0  0  0  0  0  0  0  0
    6.1326    2.0578    0.0000 C   0  0  0  0  0  0  0  0  0  0  0  0
    6.8475    0.8182    0.0000 C   0  0  0  0  0  0  0  0  0  0  0  0
    1.1295    1.6440    0.0000 N   0  0  0  0  0  0  0  0  0  0  0  0
    1.8427    2.8788    0.0000 O   0  0  0  0  0  0  0  0  0  0  0  0
    0.6830   -3.0924    0.0000 C   0  0  0  0  0  0  0  0  0  0  0  0
    1.4447   -3.4100    0.0000 C   0  0  0  0  0  0  0  0  0  0  0  0
    6.8475    1.6440    0.0000 C   0  0  0  0  0  0  0  0  0  0  0  0
    7.5606    0.4066    0.0000 O   0  0  0  0  0  0  0  0  0  0  0  0
    0.4166    2.0556    0.0000 C   0  0  0  0  0  0  0  0  0  0  0  0
    7.5606    2.0556    0.0000 C   0  0  0  0  0  0  0  0  0  0  0  0
    7.5606   -0.4165    0.0000 C   0  0  0  0  0  0  0  0  0  0  0  0
   -0.2963    1.6440    0.0000 C   0  0  0  0  0  0  0  0  0  0  0  0
    7.6408    2.8686    0.0000 C   0  0  0  0  0  0  0  0  0  0  0  0
    8.3135    1.7147    0.0000 C   0  0  0  0  0  0  0  0  0  0  0  0
   -1.0092    2.0556    0.0000 C   0  0  0  0  0  0  0  0  0  0  0  0
    7.0205    3.4100    0.0000 C   0  0  0  0  0  0  0  0  0  0  0  0
    8.4499    3.0611    0.0000 N   0  0  0  0  0  0  0  0  0  0  0  0
    8.4952    0.9116    0.0000 C   0  0  0  0  0  0  0  0  0  0  0  0
    8.8619    2.3653    0.0000 O   0  0  0  0  0  0  0  0  0  0  0  0
   -1.7223    1.6440    0.0000 C   0  0  0  0  0  0  0  0  0  0  0  0
   -2.4351    2.0556    0.0000 N   0  0  0  0  0  0  0  0  0  0  0  0
   -3.1480    1.6440    0.0000 C   0  0  0  0  0  0  0  0  0  0  0  0
   -3.1480    0.8207    0.0000 C   0  0  0  0  0  0  0  0  0  0  0  0
   -3.8610    2.0556    0.0000 O   0  0  0  0  0  0  0  0  0  0  0  0
   -3.8610    0.4090    0.0000 O   0  0  0  0  0  0  0  0  0  0  0  0
   -3.8610   -0.4141    0.0000 C   0  0  0  0  0  0  0  0  0  0  0  0
   -4.5762   -0.8280    0.0000 C   0  0  0  0  0  0  0  0  0  0  0  0
   -3.1460   -0.8280    0.0000 C   0  0  0  0  0  0  0  0  0  0  0  0
   -4.5762   -1.6537    0.0000 C   0  0  0  0  0  0  0  0  0  0  0  0
   -6.0060   -0.8280    0.0000 C   0  0  0  0  0  0  0  0  0  0  0  0
   -3.1460   -1.6537    0.0000 C   0  0  0  0  0  0  0  0  0  0  0  0
   -5.2931   -2.0655    0.0000 C   0  0  0  0  0  0  0  0  0  0  0  0
   -3.8610   -2.0655    0.0000 C   0  0  0  0  0  0  0  0  0  0  0  0
   -6.5880   -0.2459    0.0000 O   0  0  0  0  0  0  0  0  0  0  0  0
   -6.0060   -1.6537    0.0000 N   0  0  0  0  0  0  0  0  0  0  0  0
   -5.2931   -2.8887    0.0000 O   0  0  0  0  0  0  0  0  0  0  0  0
   -6.7189   -2.0653    0.0000 C   0  0  0  0  0  0  0  0  0  0  0  0
   -7.4356   -1.6527    0.0000 C   0  0  0  0  0  0  0  0  0  0  0  0
   -6.7189   -2.8909    0.0000 C   0  0  0  0  0  0  0  0  0  0  0  0
   -7.4356   -0.8294    0.0000 O   0  0  0  0  0  0  0  0  0  0  0  0
   -8.1489   -2.0653    0.0000 N   0  0  0  0  0  0  0  0  0  0  0  0
   -7.4361   -3.3047    0.0000 C   0  0  0  0  0  0  0  0  0  0  0  0
   -8.1489   -2.8909    0.0000 C   0  0  0  0  0  0  0  0  0  0  0  0
   -8.8619   -3.3025    0.0000 O   0  0  0  0  0  0  0  0  0  0  0  0
  1  2  1  0      
  1  3  1  0      
  2  4  2  0      
  2  5  1  0      
  3  6  1  0      
  3  7  2  0      
  4  8  1  0      
  4  9  1  0      
  5 10  2  0      
  6 11  1  0      
  6 12  1  0      
  7 13  1  0      
  8 14  1  0      
  8 15  2  0      
  9 16  1  0      
  9 17  2  0      
 10 17  1  0      
 10 18  1  0      
 11 19  1  0      
 12 13  2  0      
 13 20  1  0      
 14 16  1  0      
 14 21  2  0      
 15 22  1  0      
 18 23  1  0      
 18 24  2  0      
 20 25  1  0      
 20 26  1  0      
 21 27  1  0      
 22 27  2  0      
 22 28  1  0      
 23 29  1  0      
 25 26  1  0      
 27 30  1  0      
 28 31  1  0      
 29 32  1  0      
 30 33  1  0      
 30 34  2  0      
 32 35  1  0      
 33 36  1  0      
 33 37  2  0      
 34 38  1  0      
 34 39  1  0      
 35 40  1  0      
 37 39  1  0      
 40 41  1  0      
 41 42  1  0      
 42 43  1  0      
 42 44  2  0      
 43 45  1  0      
 45 46  1  0      
 46 47  2  0      
 46 48  1  0      
 47 49  1  0      
 47 50  1  0      
 48 51  2  0      
 49 52  1  0      
 49 53  2  0      
 50 54  2  0      
 50 55  1  0      
 51 53  1  0      
 52 55  1  0      
 52 56  2  0      
 55 57  1  0      
 57 58  1  0      
 57 59  1  0      
 58 60  2  0      
 58 61  1  0      
 59 62  1  0      
 61 63  1  0      
 62 63  1  0      
 63 64  2  0      
M  END

>  <RackCode>
HYCPK72335

>  <Cat. No.>
HY-103633

>  <Product Name>
PROTAC BET Degrader-1

>  <ROW>
M

>  <COLUMN>
9

>  <CAS No.>
2093386-22-0

>  <MWt>
871.90

>  <Target>
Epigenetic Reader Domain; PROTACs

>  <Saltdate>
Free Base

>  <Smiles>
CCN1C(NC2=C3C4=CC(OC)=C(C(C(C)=NO5)=C5C)C=C4NC3=NC(C(NCCCCNC(COC6=C(C(N7C(CCC8=O)C(N8)=O)=O)C(C7=O)=CC=C6)=O)=O)=N2)=CC(C9CC9)=N1

>  <Solvent>
DMSO Solution

>  <Batch No.>
38992

>  <Quantity>
10mM  * 50uL

>  <Pathway>
Epigenetics; PROTAC

>  <Synonyms>


>  <Formula>
C44H45N11O9

>  <Research_Area>
Cancer

>  <Clinical_Information>
No Development Reported

>  <SUPPLIER>
MedChemExpress

$$$$
Untitled Document
  ChemDraw09121710202D

 25 28  0  0  0  0  0  0  0  0999 V2000
    1.9539    2.9048    0.0000 C   0  0  0  0  0  0  0  0  0  0  0  0
    1.1503    3.0918    0.0000 C   0  0  0  0  0  0  0  0  0  0  0  0
    0.5865    2.4894    0.0000 C   0  0  0  0  0  0  0  0  0  0  0  0
    0.8264    1.7000    0.0000 C   0  0  0  0  0  0  0  0  0  0  0  0
    1.6299    1.5130    0.0000 C   0  0  0  0  0  0  0  0  0  0  0  0
    2.1936    2.1154    0.0000 C   0  0  0  0  0  0  0  0  0  0  0  0
    0.4003    0.9937    0.0000 C   0  0  0  0  0  0  0  0  0  0  0  0
    0.9404    0.3701    0.0000 N   0  0  0  0  0  0  0  0  0  0  0  0
    1.7004    0.6911    0.0000 C   0  0  0  0  0  0  0  0  0  0  0  0
    0.7533   -0.4335    0.0000 C   0  0  0  0  0  0  0  0  0  0  0  0
   -0.0360   -0.6733    0.0000 C   0  0  0  0  0  0  0  0  0  0  0  0
   -0.2231   -1.4768    0.0000 C   0  0  0  0  0  0  0  0  0  0  0  0
   -0.4217    0.9232    0.0000 O   0  0  0  0  0  0  0  0  0  0  0  0
   -0.9830   -1.7978    0.0000 C   0  0  0  0  0  0  0  0  0  0  0  0
   -0.9126   -2.6198    0.0000 C   0  0  0  0  0  0  0  0  0  0  0  0
   -0.1091   -2.8068    0.0000 N   0  0  0  0  0  0  0  0  0  0  0  0
    0.3171   -2.1004    0.0000 C   0  0  0  0  0  0  0  0  0  0  0  0
   -1.7302   -1.4478    0.0000 C   0  0  0  0  0  0  0  0  0  0  0  0
   -2.4067   -1.9198    0.0000 C   0  0  0  0  0  0  0  0  0  0  0  0
   -2.3363   -2.7418    0.0000 C   0  0  0  0  0  0  0  0  0  0  0  0
   -1.5893   -3.0918    0.0000 C   0  0  0  0  0  0  0  0  0  0  0  0
    2.4067    0.2649    0.0000 O   0  0  0  0  0  0  0  0  0  0  0  0
    1.3558   -0.9972    0.0000 C   0  0  0  0  0  0  0  0  0  0  0  0
    1.1689   -1.8007    0.0000 O   0  0  0  0  0  0  0  0  0  0  0  0
    2.1451   -0.7573    0.0000 O   0  0  0  0  0  0  0  0  0  0  0  0
  1  2  2  0      
  2  3  1  0      
  3  4  2  0      
  4  5  1  0      
  5  6  2  0      
  6  1  1  0      
  4  7  1  0      
  7  8  1  0      
  8  9  1  0      
  9  5  1  0      
  8 10  1  0      
 10 11  1  0      
 11 12  1  0      
  7 13  2  0      
 12 14  1  0      
 14 15  2  0      
 15 16  1  0      
 16 17  1  0      
 17 12  2  0      
 14 18  1  0      
 18 19  2  0      
 19 20  1  0      
 20 21  2  0      
 21 15  1  0      
  9 22  2  0      
 10 23  1  6      
 23 24  2  0      
 23 25  1  0      
M  END

>  <RackCode>
HYCPK72335

>  <Cat. No.>
HY-13642

>  <Product Name>
RG108

>  <ROW>
N

>  <COLUMN>
9

>  <CAS No.>
48208-26-0

>  <MWt>
334.33

>  <Target>
DNA Methyltransferase

>  <Saltdate>
Free Acid

>  <Smiles>
O=C(N1[C@H](C(O)=O)CC2=CNC3=C2C=CC=C3)C4=CC=CC=C4C1=O

>  <Solvent>
DMSO Solution

>  <Batch No.>
121263

>  <Quantity>
10mM  * 50uL

>  <Pathway>
Epigenetics

>  <Synonyms>
N-Phthalyl-L-tryptophan

>  <Formula>
C19H14N2O4

>  <Research_Area>
Cancer

>  <Clinical_Information>
No Development Reported

>  <SUPPLIER>
MedChemExpress

$$$$
Untitled Document
  ChemDraw04062109072D

 40 45  0  0  0  0  0  0  0  0999 V2000
   -1.0101   -2.1460    0.0000 C   0  0  0  0  0  0  0  0  0  0  0  0
   -1.0101   -1.3210    0.0000 C   0  0  0  0  0  0  0  0  0  0  0  0
   -1.7246   -0.9085    0.0000 C   0  0  0  0  0  0  0  0  0  0  0  0
   -2.4390   -1.3210    0.0000 C   0  0  0  0  0  0  0  0  0  0  0  0
   -2.4390   -2.1460    0.0000 C   0  0  0  0  0  0  0  0  0  0  0  0
   -1.7246   -2.5585    0.0000 N   0  0  0  0  0  0  0  0  0  0  0  0
   -0.2956   -0.9085    0.0000 C   0  0  0  0  0  0  0  0  0  0  0  0
   -0.2956   -0.0835    0.0000 O   0  0  0  0  0  0  0  0  0  0  0  0
    0.4189   -1.3210    0.0000 N   0  0  0  0  0  0  0  0  0  0  0  0
    1.1333   -0.9085    0.0000 C   0  0  0  0  0  0  0  0  0  0  0  0
    1.8478   -1.3210    0.0000 C   0  0  0  0  0  0  0  0  0  0  0  0
    2.5623   -0.9085    0.0000 C   0  0  0  0  0  0  0  0  0  0  0  0
    3.2767   -1.3210    0.0000 N   0  0  0  0  0  0  0  0  0  0  0  0
    4.0304   -0.9854    0.0000 C   0  0  0  0  0  0  0  0  0  0  0  0
    4.5824   -1.5985    0.0000 C   0  0  0  0  0  0  0  0  0  0  0  0
    4.1699   -2.3130    0.0000 C   0  0  0  0  0  0  0  0  0  0  0  0
    3.3630   -2.1415    0.0000 C   0  0  0  0  0  0  0  0  0  0  0  0
   -3.1535   -0.9085    0.0000 C   0  0  0  0  0  0  0  0  0  0  0  0
   -3.1535   -0.0835    0.0000 C   0  0  0  0  0  0  0  0  0  0  0  0
   -3.8680    0.3290    0.0000 C   0  0  0  0  0  0  0  0  0  0  0  0
   -4.5824   -0.0835    0.0000 C   0  0  0  0  0  0  0  0  0  0  0  0
   -4.5824   -0.9085    0.0000 C   0  0  0  0  0  0  0  0  0  0  0  0
   -3.8680   -1.3210    0.0000 C   0  0  0  0  0  0  0  0  0  0  0  0
   -2.4390    0.3290    0.0000 N   0  0  0  0  0  0  0  0  0  0  0  0
   -2.4390    1.1540    0.0000 C   0  0  0  0  0  0  0  0  0  0  0  0
   -1.7246    1.5665    0.0000 C   0  0  0  0  0  0  0  0  0  0  0  0
   -1.0101    1.1540    0.0000 N   0  0  0  0  0  0  0  0  0  0  0  0
   -1.0101    0.3290    0.0000 C   0  0  0  0  0  0  0  0  0  0  0  0
   -1.7246   -0.0835    0.0000 C   0  0  0  0  0  0  0  0  0  0  0  0
   -0.2956    1.5665    0.0000 C   0  0  0  0  0  0  0  0  0  0  0  0
    0.4189    1.1540    0.0000 C   0  0  0  0  0  0  0  0  0  0  0  0
    2.0265    2.5585    0.0000 N   0  0  0  0  0  0  0  0  0  0  0  0
    1.2196    2.3870    0.0000 C   0  0  0  0  0  0  0  0  0  0  0  0
    1.1333    1.5665    0.0000 C   0  0  0  0  0  0  0  0  0  0  0  0
    1.8870    1.2309    0.0000 C   0  0  0  0  0  0  0  0  0  0  0  0
    2.1419    0.4463    0.0000 C   0  0  0  0  0  0  0  0  0  0  0  0
    2.9489    0.2748    0.0000 C   0  0  0  0  0  0  0  0  0  0  0  0
    3.5009    0.8879    0.0000 C   0  0  0  0  0  0  0  0  0  0  0  0
    3.2460    1.6725    0.0000 C   0  0  0  0  0  0  0  0  0  0  0  0
    2.4390    1.8440    0.0000 C   0  0  0  0  0  0  0  0  0  0  0  0
  1  2  1  0      
  2  3  2  0      
  3  4  1  0      
  4  5  2  0      
  5  6  1  0      
  1  6  2  0      
  7  8  2  0      
  7  9  1  0      
  2  7  1  0      
 10 11  1  0      
 11 12  1  0      
 13 14  1  0      
 14 15  1  0      
 15 16  1  0      
 16 17  1  0      
 13 17  1  0      
 12 13  1  0      
  9 10  1  0      
 18 19  1  0      
 19 20  2  0      
 20 21  1  0      
 21 22  2  0      
 22 23  1  0      
 18 23  2  0      
 24 25  1  0      
 25 26  1  0      
 26 27  1  0      
 27 28  1  0      
 28 29  1  0      
 24 29  1  0      
 30 31  1  0      
 32 33  1  0      
 33 34  2  0      
 34 35  1  0      
 35 36  1  0      
 36 37  2  0      
 37 38  1  0      
 38 39  2  0      
 39 40  1  0      
 32 40  1  0      
 35 40  2  0      
 31 34  1  0      
 27 30  1  0      
 19 24  1  0      
  4 18  1  0      
M  END

>  <RackCode>
HYCPK72335

>  <Cat. No.>
HY-134828

>  <Product Name>
AZ506

>  <ROW>
O

>  <COLUMN>
9

>  <CAS No.>
2043321-54-4

>  <MWt>
536.71

>  <Target>
Histone Methyltransferase

>  <Saltdate>


>  <Smiles>
O=C(C1=CC(C2=CC=CC=C2N3CCN(CCC4=CNC5=C4C=CC=C5)CC3)=CN=C1)NCCCN6CCCC6

>  <Solvent>
DMSO Solution

>  <Batch No.>
102975

>  <Quantity>
10mM  * 50uL

>  <Pathway>
Epigenetics

>  <Synonyms>


>  <Formula>
C33H40N6O

>  <Research_Area>
Cancer

>  <Clinical_Information>
No Development Reported

>  <SUPPLIER>
MedChemExpress

$$$$
Untitled Document
  ChemDraw11252213162D

 25 27  0  0  0  0  0  0  0  0999 V2000
   -5.0011    0.8250    0.0000 N   0  0  0  0  0  0  0  0  0  0  0  0
   -4.2867    0.4125    0.0000 C   0  0  0  0  0  0  0  0  0  0  0  0
   -3.5723    0.0000    0.0000 C   0  0  0  0  0  0  0  0  0  0  0  0
   -3.5723   -0.8250    0.0000 C   0  0  0  0  0  0  0  0  0  0  0  0
   -2.8578   -1.2375    0.0000 C   0  0  0  0  0  0  0  0  0  0  0  0
   -2.1433   -0.8250    0.0000 C   0  0  0  0  0  0  0  0  0  0  0  0
   -2.1433    0.0000    0.0000 C   0  0  0  0  0  0  0  0  0  0  0  0
   -2.8578    0.4125    0.0000 C   0  0  0  0  0  0  0  0  0  0  0  0
   -1.4289    0.4125    0.0000 C   0  0  0  0  0  0  0  0  0  0  0  0
   -0.7145    0.0000    0.0000 C   0  0  0  0  0  0  0  0  0  0  0  0
    0.0000    0.4125    0.0000 C   0  0  0  0  0  0  0  0  0  0  0  0
    0.0000    1.2375    0.0000 O   0  0  0  0  0  0  0  0  0  0  0  0
    0.7145    0.0000    0.0000 C   0  0  0  0  0  0  0  0  0  0  0  0
    1.4289    0.4125    0.0000 C   0  0  0  0  0  0  0  0  0  0  0  0
    2.1433    0.0000    0.0000 C   0  0  0  0  0  0  0  0  0  0  0  0
    2.1433   -0.8250    0.0000 C   0  0  0  0  0  0  0  0  0  0  0  0
    2.8578   -1.2375    0.0000 C   0  0  0  0  0  0  0  0  0  0  0  0
    3.5723   -0.8250    0.0000 C   0  0  0  0  0  0  0  0  0  0  0  0
    3.5723    0.0000    0.0000 C   0  0  0  0  0  0  0  0  0  0  0  0
    4.2867    0.4125    0.0000 C   0  0  0  0  0  0  0  0  0  0  0  0
    5.0011    0.8250    0.0000 N   0  0  0  0  0  0  0  0  0  0  0  0
    2.8578    0.4125    0.0000 C   0  0  0  0  0  0  0  0  0  0  0  0
    0.7145   -0.8250    0.0000 C   0  0  0  0  0  0  0  0  0  0  0  0
    0.0000   -1.2375    0.0000 C   0  0  0  0  0  0  0  0  0  0  0  0
   -0.7145   -0.8250    0.0000 C   0  0  0  0  0  0  0  0  0  0  0  0
  1  2  3  0      
  2  3  1  0      
  3  4  2  0      
  4  5  1  0      
  5  6  2  0      
  6  7  1  0      
  7  8  2  0      
  3  8  1  0      
  7  9  1  0      
  9 10  2  0      
 10 11  1  0      
 11 12  2  0      
 11 13  1  0      
 13 14  2  0      
 14 15  1  0      
 15 16  1  0      
 16 17  2  0      
 17 18  1  0      
 18 19  2  0      
 19 20  1  0      
 20 21  3  0      
 19 22  1  0      
 15 22  2  0      
 13 23  1  0      
 23 24  1  0      
 24 25  1  0      
 10 25  1  0      
M  END

>  <RackCode>
HYCPK72335

>  <Cat. No.>
HY-139149

>  <Product Name>
NiCur

>  <ROW>
P

>  <COLUMN>
9

>  <CAS No.>
2674753-39-8

>  <MWt>
324.38

>  <Target>
Histone Acetyltransferase

>  <Saltdate>


>  <Smiles>
N#CC1=CC=CC(/C=C2C(/C(CCC/2)=C/C3=CC(C#N)=CC=C3)=O)=C1

>  <Solvent>
DMSO Solution

>  <Batch No.>
110404

>  <Quantity>
10mM  * 50uL

>  <Pathway>
Epigenetics

>  <Synonyms>


>  <Formula>
C22H16N2O

>  <Research_Area>
Cancer

>  <Clinical_Information>
No Development Reported

>  <SUPPLIER>
MedChemExpress

$$$$
Untitled Document
  ChemDraw01181709092D

 23 24  0  0  0  0  0  0  0  0999 V2000
   -2.8578    2.0624    0.0000 C   0  0  0  0  0  0  0  0  0  0  0  0
   -2.8578    1.2375    0.0000 C   0  0  0  0  0  0  0  0  0  0  0  0
   -2.1433    0.8250    0.0000 C   0  0  0  0  0  0  0  0  0  0  0  0
   -1.4289    1.2375    0.0000 C   0  0  0  0  0  0  0  0  0  0  0  0
   -1.4289    2.0624    0.0000 C   0  0  0  0  0  0  0  0  0  0  0  0
   -2.1433    2.4749    0.0000 C   0  0  0  0  0  0  0  0  0  0  0  0
   -3.5723    2.4749    0.0000 C   0  0  0  0  0  0  0  0  0  0  0  0
   -0.7145    2.4749    0.0000 C   0  0  0  0  0  0  0  0  0  0  0  0
   -2.1433    0.0000    0.0000 O   0  0  0  0  0  0  0  0  0  0  0  0
   -1.4289   -0.4125    0.0000 C   0  0  0  0  0  0  0  0  0  0  0  0
   -1.4289   -1.2375    0.0000 C   0  0  0  0  0  0  0  0  0  0  0  0
   -0.7145   -1.6500    0.0000 C   0  0  0  0  0  0  0  0  0  0  0  0
   -0.0000   -1.2375    0.0000 C   0  0  0  0  0  0  0  0  0  0  0  0
   -0.0000   -0.4125    0.0000 C   0  0  0  0  0  0  0  0  0  0  0  0
   -0.7145    0.0000    0.0000 C   0  0  0  0  0  0  0  0  0  0  0  0
   -0.7145    0.8250    0.0000 C   0  0  0  0  0  0  0  0  0  0  0  0
    0.7145   -1.6500    0.0000 C   0  0  0  0  0  0  0  0  0  0  0  0
    1.4289   -1.2375    0.0000 N   0  0  0  0  0  0  0  0  0  0  0  0
    2.1433   -1.6500    0.0000 C   0  0  0  0  0  0  0  0  0  0  0  0
    2.8578   -1.2375    0.0000 C   0  0  0  0  0  0  0  0  0  0  0  0
    3.5723   -1.6500    0.0000 C   0  0  0  0  0  0  0  0  0  0  0  0
    2.1433   -2.4749    0.0000 O   0  0  0  0  0  0  0  0  0  0  0  0
    2.8578   -0.4125    0.0000 N   0  0  0  0  0  0  0  0  0  0  0  0
  1  2  2  0      
  2  3  1  0      
  3  4  2  0      
  4  5  1  0      
  5  6  2  0      
  6  1  1  0      
  1  7  1  0      
  5  8  1  0      
  3  9  1  0      
  9 10  1  0      
 10 11  2  0      
 11 12  1  0      
 12 13  2  0      
 13 14  1  0      
 14 15  2  0      
 15 10  1  0      
 15 16  1  0      
 13 17  1  0      
 17 18  1  0      
 18 19  1  0      
 19 20  1  0      
 20 21  1  0      
 19 22  2  0      
 20 23  1  1      
M  END

>  <RackCode>
HYCPK72335

>  <Cat. No.>
HY-100565

>  <Product Name>
SGC2085

>  <ROW>
A

>  <COLUMN>
10

>  <CAS No.>
1821908-48-8

>  <MWt>
312.41

>  <Target>
Histone Methyltransferase

>  <Saltdate>
Free Base

>  <Smiles>
CC1=CC(OC2=CC=C(CNC([C@@H](N)C)=O)C=C2C)=CC(C)=C1

>  <Solvent>
DMSO Solution

>  <Batch No.>
23135

>  <Quantity>
10mM  * 50uL

>  <Pathway>
Epigenetics

>  <Synonyms>


>  <Formula>
C19H24N2O2

>  <Research_Area>
Cancer

>  <Clinical_Information>
No Development Reported

>  <SUPPLIER>
MedChemExpress

$$$$
Untitled Document
  ChemDraw03071615132D

 24 26  0  0  0  0  0  0  0  0999 V2000
   -0.0000   -0.4125    0.0000 C   0  0  0  0  0  0  0  0  0  0  0  0
    0.7145   -0.8250    0.0000 N   0  0  0  0  0  0  0  0  0  0  0  0
    0.7145   -1.6500    0.0000 C   0  0  0  0  0  0  0  0  0  0  0  0
   -0.0000   -2.0624    0.0000 C   0  0  0  0  0  0  0  0  0  0  0  0
   -0.7145   -1.6500    0.0000 C   0  0  0  0  0  0  0  0  0  0  0  0
   -1.4289   -2.0624    0.0000 C   0  0  0  0  0  0  0  0  0  0  0  0
   -2.1433   -1.6500    0.0000 C   0  0  0  0  0  0  0  0  0  0  0  0
   -2.1433   -0.8250    0.0000 C   0  0  0  0  0  0  0  0  0  0  0  0
   -1.4289   -0.4125    0.0000 C   0  0  0  0  0  0  0  0  0  0  0  0
   -0.7145   -0.8250    0.0000 C   0  0  0  0  0  0  0  0  0  0  0  0
   -2.8578   -0.4125    0.0000 O   0  0  0  0  0  0  0  0  0  0  0  0
    1.4289   -0.4125    0.0000 C   0  0  0  0  0  0  0  0  0  0  0  0
   -2.8578   -2.0624    0.0000 O   0  0  0  0  0  0  0  0  0  0  0  0
   -3.5723   -1.6500    0.0000 C   0  0  0  0  0  0  0  0  0  0  0  0
   -0.0000    0.4125    0.0000 C   0  0  0  0  0  0  0  0  0  0  0  0
    0.7145    0.8250    0.0000 C   0  0  0  0  0  0  0  0  0  0  0  0
    1.4289    0.4125    0.0000 C   0  0  0  0  0  0  0  0  0  0  0  0
    2.1433    0.8250    0.0000 C   0  0  0  0  0  0  0  0  0  0  0  0
    2.1433    1.6500    0.0000 C   0  0  0  0  0  0  0  0  0  0  0  0
    1.4289    2.0624    0.0000 C   0  0  0  0  0  0  0  0  0  0  0  0
    0.7145    1.6500    0.0000 C   0  0  0  0  0  0  0  0  0  0  0  0
    2.8578    2.0624    0.0000 O   0  0  0  0  0  0  0  0  0  0  0  0
    3.5723    1.6500    0.0000 C   0  0  0  0  0  0  0  0  0  0  0  0
    2.8578    0.4125    0.0000 O   0  0  0  0  0  0  0  0  0  0  0  0
  1  2  1  0      
  2  3  1  0      
  3  4  1  0      
  4  5  1  0      
  5  6  1  0      
  6  7  2  0      
  7  8  1  0      
  8  9  2  0      
  9 10  1  0      
  1 10  1  0      
  5 10  2  0      
  8 11  1  0      
  2 12  1  0      
 13 14  1  0      
  7 13  1  0      
 16 17  1  0      
 17 18  2  0      
 18 19  1  0      
 19 20  2  0      
 20 21  1  0      
 16 21  2  0      
 22 23  1  0      
 19 22  1  0      
 18 24  1  0      
 15 16  1  0      
  1 15  1  6      
M  END

>  <RackCode>
HYCPK72335

>  <Cat. No.>
HY-N1356

>  <Product Name>
Reticuline

>  <ROW>
B

>  <COLUMN>
10

>  <CAS No.>
485-19-8

>  <MWt>
329.39

>  <Target>
Endogenous Metabolite; JAK; NF-¦ÊB; STAT

>  <Saltdate>


>  <Smiles>
OC1=CC2=C(C=C1OC)CCN(C)[C@H]2CC3=CC=C(OC)C(O)=C3

>  <Solvent>
DMSO Solution

>  <Batch No.>
338621

>  <Quantity>
10mM  * 50uL

>  <Pathway>
Epigenetics; JAK/STAT Signaling; Metabolic Enzyme/Protease; NF-¦ÊB; Protein Tyrosine Kinase/RTK; Stem Cell/Wnt

>  <Synonyms>


>  <Formula>
C19H23NO4

>  <Research_Area>
Inflammation/Immunology; Cardiovascular Disease

>  <Clinical_Information>
No Development Reported

>  <SUPPLIER>
MedChemExpress

$$$$
Untitled Document
  ChemDraw02091710042D

 43 48  0  0  0  0  0  0  0  0999 V2000
   -2.4390    0.8728    0.0000 C   0  0  0  0  0  0  0  0  0  0  0  0
   -1.7246    0.4603    0.0000 C   0  0  0  0  0  0  0  0  0  0  0  0
   -1.0101    0.8728    0.0000 C   0  0  0  0  0  0  0  0  0  0  0  0
   -1.0101    1.6978    0.0000 C   0  0  0  0  0  0  0  0  0  0  0  0
   -1.7246    2.1103    0.0000 C   0  0  0  0  0  0  0  0  0  0  0  0
   -2.4390    1.6978    0.0000 C   0  0  0  0  0  0  0  0  0  0  0  0
   -3.1535    0.4603    0.0000 C   0  0  0  0  0  0  0  0  0  0  0  0
   -3.1535   -0.3647    0.0000 C   0  0  0  0  0  0  0  0  0  0  0  0
   -3.8680   -0.7772    0.0000 C   0  0  0  0  0  0  0  0  0  0  0  0
   -4.5824   -0.3647    0.0000 C   0  0  0  0  0  0  0  0  0  0  0  0
   -4.5824    0.4603    0.0000 C   0  0  0  0  0  0  0  0  0  0  0  0
   -3.8680    0.8728    0.0000 C   0  0  0  0  0  0  0  0  0  0  0  0
   -0.2956    0.4603    0.0000 C   0  0  0  0  0  0  0  0  0  0  0  0
   -0.2956   -0.3647    0.0000 O   0  0  0  0  0  0  0  0  0  0  0  0
    0.4189    0.8728    0.0000 N   0  0  0  0  0  0  0  0  0  0  0  0
    1.1333    0.4603    0.0000 C   0  0  0  0  0  0  0  0  0  0  0  0
    1.8478    0.8728    0.0000 C   0  0  0  0  0  0  0  0  0  0  0  0
    2.5623    0.4603    0.0000 C   0  0  0  0  0  0  0  0  0  0  0  0
    3.2767    0.8728    0.0000 N   0  0  0  0  0  0  0  0  0  0  0  0
    4.0304    0.5373    0.0000 C   0  0  0  0  0  0  0  0  0  0  0  0
    4.5824    1.1504    0.0000 C   0  0  0  0  0  0  0  0  0  0  0  0
    4.1699    1.8648    0.0000 C   0  0  0  0  0  0  0  0  0  0  0  0
    3.3630    1.6933    0.0000 C   0  0  0  0  0  0  0  0  0  0  0  0
   -2.4390   -0.7772    0.0000 N   0  0  0  0  0  0  0  0  0  0  0  0
   -2.4390   -1.6022    0.0000 C   0  0  0  0  0  0  0  0  0  0  0  0
   -1.7246   -2.0147    0.0000 C   0  0  0  0  0  0  0  0  0  0  0  0
   -1.0101   -1.6022    0.0000 N   0  0  0  0  0  0  0  0  0  0  0  0
   -1.0101   -0.7772    0.0000 C   0  0  0  0  0  0  0  0  0  0  0  0
   -1.7246   -0.3647    0.0000 C   0  0  0  0  0  0  0  0  0  0  0  0
   -0.2956   -2.0147    0.0000 C   0  0  0  0  0  0  0  0  0  0  0  0
    0.4189   -1.6022    0.0000 C   0  0  0  0  0  0  0  0  0  0  0  0
    1.1333   -2.0147    0.0000 N   0  0  0  0  0  0  0  0  0  0  0  0
    1.2196   -2.8351    0.0000 C   0  0  0  0  0  0  0  0  0  0  0  0
    2.0265   -3.0067    0.0000 C   0  0  0  0  0  0  0  0  0  0  0  0
    2.4390   -2.2922    0.0000 C   0  0  0  0  0  0  0  0  0  0  0  0
    3.2460   -2.1207    0.0000 C   0  0  0  0  0  0  0  0  0  0  0  0
    3.5009   -1.3360    0.0000 C   0  0  0  0  0  0  0  0  0  0  0  0
    2.9489   -0.7230    0.0000 C   0  0  0  0  0  0  0  0  0  0  0  0
    2.1419   -0.8945    0.0000 C   0  0  0  0  0  0  0  0  0  0  0  0
    1.8870   -1.6791    0.0000 C   0  0  0  0  0  0  0  0  0  0  0  0
    2.3621   -3.7603    0.0000 C   0  0  0  0  0  0  0  0  0  0  0  0
   -1.7246    2.9353    0.0000 C   0  0  0  0  0  0  0  0  0  0  0  0
   -1.7246    3.7603    0.0000 N   0  0  0  0  0  0  0  0  0  0  0  0
  1  2  1  0      
  2  3  2  0      
  3  4  1  0      
  4  5  2  0      
  5  6  1  0      
  1  6  2  0      
  7  8  1  0      
  8  9  2  0      
  9 10  1  0      
 10 11  2  0      
 11 12  1  0      
  7 12  2  0      
  1  7  1  0      
 13 14  2  0      
 13 15  1  0      
  3 13  1  0      
 16 17  1  0      
 17 18  1  0      
 19 20  1  0      
 20 21  1  0      
 21 22  1  0      
 22 23  1  0      
 19 23  1  0      
 18 19  1  0      
 15 16  1  0      
 24 25  1  0      
 25 26  1  0      
 26 27  1  0      
 27 28  1  0      
 28 29  1  0      
 24 29  1  0      
 30 31  1  0      
 32 33  1  0      
 33 34  2  0      
 34 35  1  0      
 35 36  1  0      
 36 37  2  0      
 37 38  1  0      
 38 39  2  0      
 39 40  1  0      
 32 40  1  0      
 35 40  2  0      
 34 41  1  0      
 31 32  1  0      
 27 30  1  0      
  8 24  1  0      
 42 43  3  0      
  5 42  1  0      
M  END

>  <RackCode>
HYCPK72335

>  <Cat. No.>
HY-19313

>  <Product Name>
LLY-507

>  <ROW>
C

>  <COLUMN>
10

>  <CAS No.>
1793053-37-8

>  <MWt>
574.76

>  <Target>
Histone Methyltransferase

>  <Saltdate>
Free Base

>  <Smiles>
O=C(C1=CC(C2=CC=CC=C2N3CCN(CCN4C=C(C)C5=C4C=CC=C5)CC3)=CC(C#N)=C1)NCCCN6CCCC6

>  <Solvent>
DMSO Solution

>  <Batch No.>
20228

>  <Quantity>
10mM  * 50uL

>  <Pathway>
Epigenetics

>  <Synonyms>


>  <Formula>
C36H42N6O

>  <Research_Area>
Cancer

>  <Clinical_Information>
No Development Reported

>  <SUPPLIER>
MedChemExpress

$$$$
Untitled Document
  ChemDraw12262313592D

 20 21  0  0  0  0  0  0  0  0999 V2000
    1.4289   -0.2062    0.0000 C   0  0  0  0  0  0  0  0  0  0  0  0
    0.7145    0.2062    0.0000 N   0  0  0  0  0  0  0  0  0  0  0  0
    0.0000   -0.2062    0.0000 N   0  0  0  0  0  0  0  0  0  0  0  0
   -0.7145    0.2062    0.0000 C   0  0  0  0  0  0  0  0  0  0  0  0
   -0.7145    1.0313    0.0000 O   0  0  0  0  0  0  0  0  0  0  0  0
   -1.4289   -0.2062    0.0000 C   0  0  0  0  0  0  0  0  0  0  0  0
   -2.1435    0.2062    0.0000 C   0  0  0  0  0  0  0  0  0  0  0  0
   -2.8580   -0.2062    0.0000 C   0  0  0  0  0  0  0  0  0  0  0  0
   -2.8580   -1.0313    0.0000 C   0  0  0  0  0  0  0  0  0  0  0  0
   -3.5725   -1.4437    0.0000 O   0  0  0  0  0  0  0  0  0  0  0  0
   -2.1435   -1.4437    0.0000 C   0  0  0  0  0  0  0  0  0  0  0  0
   -1.4289   -1.0313    0.0000 C   0  0  0  0  0  0  0  0  0  0  0  0
    1.4289   -1.0313    0.0000 C   0  0  0  0  0  0  0  0  0  0  0  0
    2.1435    0.2062    0.0000 C   0  0  0  0  0  0  0  0  0  0  0  0
    2.1435    1.0313    0.0000 C   0  0  0  0  0  0  0  0  0  0  0  0
    1.4289    1.4437    0.0000 O   0  0  0  0  0  0  0  0  0  0  0  0
    2.8580    1.4437    0.0000 C   0  0  0  0  0  0  0  0  0  0  0  0
    3.5725    1.0313    0.0000 C   0  0  0  0  0  0  0  0  0  0  0  0
    3.5725    0.2062    0.0000 C   0  0  0  0  0  0  0  0  0  0  0  0
    2.8580   -0.2062    0.0000 C   0  0  0  0  0  0  0  0  0  0  0  0
  1  2  2  0      
  2  3  1  0      
  3  4  1  0      
  4  5  2  0      
  4  6  1  0      
  6  7  2  0      
  7  8  1  0      
  8  9  2  0      
  9 10  1  0      
  9 11  1  0      
 11 12  2  0      
  6 12  1  0      
  1 13  1  0      
  1 14  1  0      
 14 15  2  0      
 15 16  1  0      
 15 17  1  0      
 17 18  2  0      
 18 19  1  0      
 19 20  2  0      
 14 20  1  0      
M  END

>  <RackCode>
HYCPK72335

>  <Cat. No.>
HY-160191

>  <Product Name>
LSD1-IN-30

>  <ROW>
D

>  <COLUMN>
10

>  <CAS No.>
1289575-45-6

>  <MWt>
270.28

>  <Target>
Histone Demethylase

>  <Saltdate>


>  <Smiles>
O=C(C1=CC=C(C=C1)O)N/N=C(C2=C(C=CC=C2)O)\C

>  <Solvent>
DMSO Solution

>  <Batch No.>
332825

>  <Quantity>
10mM  * 50uL

>  <Pathway>
Epigenetics

>  <Synonyms>


>  <Formula>
C15H14N2O3

>  <Research_Area>
cancer

>  <Clinical_Information>
No Development Reported

>  <SUPPLIER>
MedChemExpress

$$$$
Untitled Document
  ChemDraw04112413502D

 42 46  0  0  0  0  0  0  0  0999 V2000
   -4.3209   -1.5918    0.0000 C   0  0  0  0  0  0  0  0  0  0  0  0
   -4.6098   -0.8221    0.0000 C   0  0  0  0  0  0  0  0  0  0  0  0
   -4.1553   -0.1336    0.0000 C   0  0  0  0  0  0  0  0  0  0  0  0
   -4.6697    0.5114    0.0000 C   0  0  0  0  0  0  0  0  0  0  0  0
   -4.4861    1.3157    0.0000 N   0  0  0  0  0  0  0  0  0  0  0  0
   -3.7428    1.6738    0.0000 C   0  0  0  0  0  0  0  0  0  0  0  0
   -2.9995    1.3157    0.0000 C   0  0  0  0  0  0  0  0  0  0  0  0
   -2.3568    1.8284    0.0000 C   0  0  0  0  0  0  0  0  0  0  0  0
   -1.5914    1.5280    0.0000 C   0  0  0  0  0  0  0  0  0  0  0  0
   -0.9486    2.0407    0.0000 N   0  0  0  0  0  0  0  0  0  0  0  0
   -0.1833    1.7403    0.0000 C   0  0  0  0  0  0  0  0  0  0  0  0
    0.4595    2.2529    0.0000 C   0  0  0  0  0  0  0  0  0  0  0  0
    1.2248    1.9525    0.0000 C   0  0  0  0  0  0  0  0  0  0  0  0
    1.8677    2.4651    0.0000 N   0  0  0  0  0  0  0  0  0  0  0  0
    2.6330    2.1648    0.0000 C   0  0  0  0  0  0  0  0  0  0  0  0
    3.2757    2.6774    0.0000 O   0  0  0  0  0  0  0  0  0  0  0  0
    4.0411    2.3770    0.0000 C   0  0  0  0  0  0  0  0  0  0  0  0
    4.6134    2.9712    0.0000 C   0  0  0  0  0  0  0  0  0  0  0  0
    5.4384    2.9866    0.0000 C   0  0  0  0  0  0  0  0  0  0  0  0
    6.0325    2.4143    0.0000 C   0  0  0  0  0  0  0  0  0  0  0  0
    6.0480    1.5893    0.0000 C   0  0  0  0  0  0  0  0  0  0  0  0
    5.4756    0.9951    0.0000 C   0  0  0  0  0  0  0  0  0  0  0  0
    4.6506    0.9797    0.0000 C   0  0  0  0  0  0  0  0  0  0  0  0
    4.0565    1.5521    0.0000 C   0  0  0  0  0  0  0  0  0  0  0  0
    2.7555    1.3517    0.0000 O   0  0  0  0  0  0  0  0  0  0  0  0
   -1.4688    0.7150    0.0000 O   0  0  0  0  0  0  0  0  0  0  0  0
   -2.8159    0.5114    0.0000 N   0  0  0  0  0  0  0  0  0  0  0  0
   -3.3303   -0.1336    0.0000 C   0  0  0  0  0  0  0  0  0  0  0  0
   -2.9193   -0.8456    0.0000 C   0  0  0  0  0  0  0  0  0  0  0  0
   -2.0943   -0.8456    0.0000 C   0  0  0  0  0  0  0  0  0  0  0  0
   -1.6818   -1.5600    0.0000 C   0  0  0  0  0  0  0  0  0  0  0  0
   -2.0943   -2.2746    0.0000 C   0  0  0  0  0  0  0  0  0  0  0  0
   -1.6832   -2.9866    0.0000 Cl  0  0  0  0  0  0  0  0  0  0  0  0
   -2.9193   -2.2746    0.0000 C   0  0  0  0  0  0  0  0  0  0  0  0
   -3.3318   -1.5600    0.0000 C   0  0  0  0  0  0  0  0  0  0  0  0
   -3.8536    2.4913    0.0000 N   0  0  0  0  0  0  0  0  0  0  0  0
   -4.6653    2.6386    0.0000 N   0  0  0  0  0  0  0  0  0  0  0  0
   -5.0564    1.9121    0.0000 C   0  0  0  0  0  0  0  0  0  0  0  0
   -5.8710    1.8018    0.0000 C   0  0  0  0  0  0  0  0  0  0  0  0
   -5.4422    0.2215    0.0000 S   0  0  0  0  0  0  0  0  0  0  0  0
   -5.4052   -0.6026    0.0000 C   0  0  0  0  0  0  0  0  0  0  0  0
   -6.0480   -1.1152    0.0000 C   0  0  0  0  0  0  0  0  0  0  0  0
  1  2  1  0      
  2  3  1  0      
  3  4  2  0      
  4  5  1  0      
  5  6  1  0      
  6  7  1  0      
  7  8  1  6      
  8  9  1  0      
  9 10  1  0      
 10 11  1  0      
 11 12  1  0      
 12 13  1  0      
 13 14  1  0      
 14 15  1  0      
 15 16  1  0      
 16 17  1  0      
 17 18  1  0      
 18 19  1  0      
 19 20  1  0      
 20 21  1  0      
 21 22  2  0      
 22 23  1  0      
 23 24  1  0      
 17 24  1  0      
 15 25  2  0      
  9 26  2  0      
  7 27  1  0      
 27 28  2  0      
  3 28  1  0      
 28 29  1  0      
 29 30  2  0      
 30 31  1  0      
 31 32  2  0      
 32 33  1  0      
 32 34  1  0      
 34 35  2  0      
 29 35  1  0      
  6 36  2  0      
 36 37  1  0      
 37 38  2  0      
  5 38  1  0      
 38 39  1  0      
  4 40  1  0      
 40 41  1  0      
  2 41  2  0      
 41 42  1  0      
M  END

>  <RackCode>
HYCPK72335

>  <Cat. No.>
HY-148864A

>  <Product Name>
(Z)-JQ1-TCO

>  <ROW>
E

>  <COLUMN>
10

>  <CAS No.>


>  <MWt>
609.18

>  <Target>
Epigenetic Reader Domain

>  <Saltdate>


>  <Smiles>
CC1=C(C)SC2=C1C(C3=CC=C(C=C3)Cl)=N[C@@H](CC(NCCCNC(OC4CCC/C=C\CC4)=O)=O)C5=NN=C(C)N25

>  <Solvent>
DMSO Solution

>  <Batch No.>
399606

>  <Quantity>
10mM  * 50uL

>  <Pathway>
Epigenetics

>  <Synonyms>


>  <Formula>
C31H37ClN6O3S

>  <Research_Area>
Cancer

>  <Clinical_Information>
No Development Reported

>  <SUPPLIER>
MedChemExpress

$$$$
Untitled Document
  ChemDraw04262217422D

 17 18  0  0  0  0  0  0  0  0999 V2000
   -0.1068    1.7470    0.0000 C   0  0  0  0  0  0  0  0  0  0  0  0
    0.4452    1.1340    0.0000 C   0  0  0  0  0  0  0  0  0  0  0  0
    1.2522    1.3055    0.0000 C   0  0  0  0  0  0  0  0  0  0  0  0
    0.1903    0.3493    0.0000 C   0  0  0  0  0  0  0  0  0  0  0  0
    0.6752   -0.3181    0.0000 C   0  0  0  0  0  0  0  0  0  0  0  0
    1.5002   -0.3181    0.0000 C   0  0  0  0  0  0  0  0  0  0  0  0
    1.9127   -1.0326    0.0000 C   0  0  0  0  0  0  0  0  0  0  0  0
    2.7377   -1.0326    0.0000 N   0  0  0  0  0  0  0  0  0  0  0  0
    1.5002   -1.7470    0.0000 O   0  0  0  0  0  0  0  0  0  0  0  0
    0.1903   -0.9855    0.0000 N   0  0  0  0  0  0  0  0  0  0  0  0
   -0.5943   -0.7306    0.0000 C   0  0  0  0  0  0  0  0  0  0  0  0
   -1.3088   -1.1431    0.0000 C   0  0  0  0  0  0  0  0  0  0  0  0
   -2.0233   -0.7306    0.0000 C   0  0  0  0  0  0  0  0  0  0  0  0
   -2.0233    0.0944    0.0000 C   0  0  0  0  0  0  0  0  0  0  0  0
   -2.7377    0.5069    0.0000 Cl  0  0  0  0  0  0  0  0  0  0  0  0
   -1.3088    0.5069    0.0000 C   0  0  0  0  0  0  0  0  0  0  0  0
   -0.5943    0.0944    0.0000 C   0  0  0  0  0  0  0  0  0  0  0  0
  1  2  1  0      
  2  3  1  0      
  2  4  1  0      
  4  5  2  0      
  5  6  1  0      
  6  7  1  0      
  7  8  1  0      
  7  9  2  0      
  5 10  1  0      
 10 11  1  0      
 11 12  2  0      
 12 13  1  0      
 13 14  2  0      
 14 15  1  0      
 14 16  1  0      
 16 17  2  0      
 11 17  1  0      
  4 17  1  0      
M  END

>  <RackCode>
HYCPK72335

>  <Cat. No.>
HY-146689

>  <Product Name>
SIRT1-IN-2

>  <ROW>
F

>  <COLUMN>
10

>  <CAS No.>
2470969-89-0

>  <MWt>
250.72

>  <Target>
Sirtuin

>  <Saltdate>


>  <Smiles>
CC(C1=C(NC2=CC=C(C=C21)Cl)CC(N)=O)C

>  <Solvent>
DMSO Solution

>  <Batch No.>
267638

>  <Quantity>
10mM  * 50uL

>  <Pathway>
Cell Cycle/DNA Damage; Epigenetics

>  <Synonyms>


>  <Formula>
C13H15ClN2O

>  <Research_Area>
Cancer

>  <Clinical_Information>
No Development Reported

>  <SUPPLIER>
MedChemExpress

$$$$
Untitled Document
  ChemDraw05101917272D

 22 24  0  0  0  0  0  0  0  0999 V2000
   -0.0000   -1.8562    0.0000 O   0  0  0  0  0  0  0  0  0  0  0  0
   -0.0000   -1.0312    0.0000 C   0  0  0  0  0  0  0  0  0  0  0  0
    0.7145   -0.6187    0.0000 C   0  0  0  0  0  0  0  0  0  0  0  0
    0.7145    0.2062    0.0000 C   0  0  0  0  0  0  0  0  0  0  0  0
    1.4289    0.6188    0.0000 C   0  0  0  0  0  0  0  0  0  0  0  0
    1.4289    1.4438    0.0000 C   0  0  0  0  0  0  0  0  0  0  0  0
    2.1434    1.8563    0.0000 C   0  0  0  0  0  0  0  0  0  0  0  0
    2.8579    1.4438    0.0000 C   0  0  0  0  0  0  0  0  0  0  0  0
    3.5724    1.8563    0.0000 O   0  0  0  0  0  0  0  0  0  0  0  0
    2.8579    0.6188    0.0000 C   0  0  0  0  0  0  0  0  0  0  0  0
    2.1434    0.2062    0.0000 C   0  0  0  0  0  0  0  0  0  0  0  0
   -0.0000    0.6188    0.0000 O   0  0  0  0  0  0  0  0  0  0  0  0
   -0.7145    0.2062    0.0000 C   0  0  0  0  0  0  0  0  0  0  0  0
   -1.4289    0.6187    0.0000 C   0  0  0  0  0  0  0  0  0  0  0  0
   -2.1434    0.2062    0.0000 C   0  0  0  0  0  0  0  0  0  0  0  0
   -2.8579    0.6187    0.0000 O   0  0  0  0  0  0  0  0  0  0  0  0
   -2.1434   -0.6188    0.0000 C   0  0  0  0  0  0  0  0  0  0  0  0
   -2.8579   -1.0313    0.0000 O   0  0  0  0  0  0  0  0  0  0  0  0
   -3.5724   -0.6188    0.0000 C   0  0  0  0  0  0  0  0  0  0  0  0
   -1.4289   -1.0313    0.0000 C   0  0  0  0  0  0  0  0  0  0  0  0
   -1.4289   -1.8563    0.0000 O   0  0  0  0  0  0  0  0  0  0  0  0
   -0.7145   -0.6188    0.0000 C   0  0  0  0  0  0  0  0  0  0  0  0
  1  2  2  0      
  2  3  1  0      
  3  4  2  0      
  4  5  1  0      
  5  6  2  0      
  6  7  1  0      
  7  8  2  0      
  8  9  1  0      
  8 10  1  0      
 10 11  2  0      
  5 11  1  0      
  4 12  1  0      
 12 13  1  0      
 13 14  2  0      
 14 15  1  0      
 15 16  1  0      
 15 17  2  0      
 17 18  1  0      
 18 19  1  0      
 17 20  1  0      
 20 21  1  0      
 20 22  2  0      
  2 22  1  0      
 13 22  1  0      
M  END

>  <RackCode>
HYCPK72335

>  <Cat. No.>
HY-N1950

>  <Product Name>
Hispidulin

>  <ROW>
G

>  <COLUMN>
10

>  <CAS No.>
1447-88-7

>  <MWt>
300.26

>  <Target>
Pim

>  <Saltdate>
Free Base

>  <Smiles>
O=C1C=C(C2=CC=C(O)C=C2)OC3=CC(O)=C(OC)C(O)=C13

>  <Solvent>
DMSO Solution

>  <Batch No.>
463341

>  <Quantity>
10mM  * 50uL

>  <Pathway>
JAK/STAT Signaling

>  <Synonyms>
Dinatin

>  <Formula>
C16H12O6

>  <Research_Area>
Cancer

>  <Clinical_Information>
No Development Reported

>  <SUPPLIER>
MedChemExpress

$$$$
Untitled Document
  ChemDraw09261715222D

 31 34  0  0  0  0  0  0  0  0999 V2000
    2.1435    0.2033    0.0000 O   0  0  0  0  0  0  0  0  0  0  0  0
    1.4294   -0.2033    0.0000 C   0  0  0  0  0  0  0  0  0  0  0  0
    1.4294   -1.0310    0.0000 C   0  0  0  0  0  0  0  0  0  0  0  0
    0.7131   -1.4441    0.0000 C   0  0  0  0  0  0  0  0  0  0  0  0
    0.7131   -2.2718    0.0000 C   0  0  0  0  0  0  0  0  0  0  0  0
    1.4294   -2.6784    0.0000 C   0  0  0  0  0  0  0  0  0  0  0  0
    2.1415   -2.2718    0.0000 C   0  0  0  0  0  0  0  0  0  0  0  0
    2.1415   -1.4441    0.0000 C   0  0  0  0  0  0  0  0  0  0  0  0
    2.1435    1.0310    0.0000 C   0  0  0  0  0  0  0  0  0  0  0  0
    2.8556    1.4441    0.0000 C   0  0  0  0  0  0  0  0  0  0  0  0
    2.8556    2.2638    0.0000 C   0  0  0  0  0  0  0  0  0  0  0  0
    2.1435    2.6784    0.0000 N   0  0  0  0  0  0  0  0  0  0  0  0
    1.4273    2.2638    0.0000 C   0  0  0  0  0  0  0  0  0  0  0  0
    1.4273    1.4441    0.0000 N   0  0  0  0  0  0  0  0  0  0  0  0
    0.7131    2.6784    0.0000 N   0  0  0  0  0  0  0  0  0  0  0  0
   -0.0010    2.2638    0.0000 C   0  0  0  0  0  0  0  0  0  0  0  0
   -0.0010    1.4441    0.0000 C   0  0  0  0  0  0  0  0  0  0  0  0
   -0.7131    1.0310    0.0000 C   0  0  0  0  0  0  0  0  0  0  0  0
   -1.4294    1.4441    0.0000 C   0  0  0  0  0  0  0  0  0  0  0  0
   -1.4294    2.2638    0.0000 C   0  0  0  0  0  0  0  0  0  0  0  0
   -0.7131    2.6784    0.0000 C   0  0  0  0  0  0  0  0  0  0  0  0
   -2.1435    1.0310    0.0000 C   0  0  0  0  0  0  0  0  0  0  0  0
   -2.8577    1.4441    0.0000 N   0  0  0  0  0  0  0  0  0  0  0  0
   -3.5719    1.0310    0.0000 C   0  0  0  0  0  0  0  0  0  0  0  0
   -4.2860    1.4441    0.0000 C   0  0  0  0  0  0  0  0  0  0  0  0
   -2.8577    2.2638    0.0000 C   0  0  0  0  0  0  0  0  0  0  0  0
   -3.5719    2.6784    0.0000 C   0  0  0  0  0  0  0  0  0  0  0  0
   -2.1435    0.2033    0.0000 O   0  0  0  0  0  0  0  0  0  0  0  0
    3.5719    2.6784    0.0000 N   0  0  0  0  0  0  0  0  0  0  0  0
    4.2860    2.2638    0.0000 C   0  0  0  0  0  0  0  0  0  0  0  0
    4.2860    1.4441    0.0000 N   0  0  0  0  0  0  0  0  0  0  0  0
  1  2  1  0      
  1  9  1  0      
  2  3  1  0      
  3  4  1  0      
  3  8  1  0      
  4  5  1  0      
  5  6  1  0      
  7  6  1  0      
  8  7  1  0      
  9 10  2  0      
  9 14  1  0      
 10 11  1  0      
 10 31  1  0      
 11 12  2  0      
 11 29  1  0      
 13 12  1  0      
 14 13  2  0      
 13 15  1  0      
 15 16  1  0      
 16 17  2  0      
 16 21  1  0      
 17 18  1  0      
 18 19  2  0      
 20 19  1  0      
 19 22  1  0      
 21 20  2  0      
 22 23  1  0      
 22 28  2  0      
 23 24  1  0      
 23 26  1  0      
 24 25  1  0      
 26 27  1  0      
 29 30  2  0      
 31 30  1  0      
M  END

>  <RackCode>
HYCPK72335

>  <Cat. No.>
HY-107419

>  <Product Name>
NU6140

>  <ROW>
H

>  <COLUMN>
10

>  <CAS No.>
444723-13-1

>  <MWt>
422.52

>  <Target>
Aurora Kinase; CDK

>  <Saltdate>
Free Base

>  <Smiles>
CCN(CC)C(C(C=C1)=CC=C1NC2=NC(OCC3CCCCC3)=C4C(N=CN4)=N2)=O

>  <Solvent>
DMSO Solution

>  <Batch No.>
102837

>  <Quantity>
10mM  * 50uL

>  <Pathway>
Cell Cycle/DNA Damage; Epigenetics

>  <Synonyms>


>  <Formula>
C23H30N6O2

>  <Research_Area>
Cancer

>  <Clinical_Information>
No Development Reported

>  <SUPPLIER>
MedChemExpress

$$$$
Untitled Document
  ChemDraw08182310052D

 26 29  0  0  0  0  0  0  0  0999 V2000
    3.6341   -2.1312    0.0000 O   0  0  0  0  0  0  0  0  0  0  0  0
    3.3792   -1.3466    0.0000 C   0  0  0  0  0  0  0  0  0  0  0  0
    3.9312   -0.7335    0.0000 N   0  0  0  0  0  0  0  0  0  0  0  0
    4.7382   -0.9050    0.0000 O   0  0  0  0  0  0  0  0  0  0  0  0
    2.5722   -1.1750    0.0000 C   0  0  0  0  0  0  0  0  0  0  0  0
    2.0201   -1.7881    0.0000 C   0  0  0  0  0  0  0  0  0  0  0  0
    1.2132   -1.6166    0.0000 N   0  0  0  0  0  0  0  0  0  0  0  0
    0.9582   -0.8320    0.0000 C   0  0  0  0  0  0  0  0  0  0  0  0
    0.1513   -0.6605    0.0000 N   0  0  0  0  0  0  0  0  0  0  0  0
   -0.4008   -1.2736    0.0000 C   0  0  0  0  0  0  0  0  0  0  0  0
   -1.2077   -1.1020    0.0000 C   0  0  0  0  0  0  0  0  0  0  0  0
   -1.4627   -0.3174    0.0000 N   0  0  0  0  0  0  0  0  0  0  0  0
   -2.2697   -0.1459    0.0000 C   0  0  0  0  0  0  0  0  0  0  0  0
   -2.5246    0.6387    0.0000 C   0  0  0  0  0  0  0  0  0  0  0  0
   -2.0397    1.3062    0.0000 C   0  0  0  0  0  0  0  0  0  0  0  0
   -2.5246    1.9736    0.0000 N   0  0  0  0  0  0  0  0  0  0  0  0
   -3.3092    1.7187    0.0000 C   0  0  0  0  0  0  0  0  0  0  0  0
   -3.3092    0.8937    0.0000 C   0  0  0  0  0  0  0  0  0  0  0  0
   -4.0237    0.4812    0.0000 C   0  0  0  0  0  0  0  0  0  0  0  0
   -4.7382    0.8937    0.0000 C   0  0  0  0  0  0  0  0  0  0  0  0
   -4.7382    1.7187    0.0000 C   0  0  0  0  0  0  0  0  0  0  0  0
   -4.0237    2.1312    0.0000 C   0  0  0  0  0  0  0  0  0  0  0  0
   -0.9106    0.2957    0.0000 C   0  0  0  0  0  0  0  0  0  0  0  0
   -0.1037    0.1242    0.0000 C   0  0  0  0  0  0  0  0  0  0  0  0
    1.5103   -0.2189    0.0000 N   0  0  0  0  0  0  0  0  0  0  0  0
    2.3172   -0.3904    0.0000 C   0  0  0  0  0  0  0  0  0  0  0  0
  1  2  2  0      
  2  3  1  0      
  3  4  1  0      
  2  5  1  0      
  5  6  2  0      
  6  7  1  0      
  7  8  2  0      
  8  9  1  0      
  9 10  1  0      
 10 11  1  0      
 11 12  1  0      
 12 13  1  0      
 13 14  1  0      
 15 16  1  0      
 16 17  1  0      
 17 18  2  0      
 14 18  1  0      
 18 19  1  0      
 19 20  2  0      
 20 21  1  0      
 21 22  2  0      
 17 22  1  0      
 12 23  1  0      
 23 24  1  0      
  9 24  1  0      
  8 25  1  0      
 25 26  2  0      
  5 26  1  0      
 15 14  2  0      
M  END

>  <RackCode>
HYCPK72335

>  <Cat. No.>
HY-155840

>  <Product Name>
KH16

>  <ROW>
I

>  <COLUMN>
10

>  <CAS No.>


>  <MWt>
352.39

>  <Target>
Apoptosis; HDAC

>  <Saltdate>


>  <Smiles>
O=C(C1=CN=C(N=C1)N2CCN(CC2)CC3=CNC4=C3C=CC=C4)NO

>  <Solvent>
DMSO Solution

>  <Batch No.>
358328

>  <Quantity>
10mM  * 50uL

>  <Pathway>
Apoptosis; Cell Cycle/DNA Damage; Epigenetics

>  <Synonyms>


>  <Formula>
C18H20N6O2

>  <Research_Area>
Cancer

>  <Clinical_Information>
No Development Reported

>  <SUPPLIER>
MedChemExpress

$$$$
Untitled Document
  ChemDraw11131313012D

 28 30  0  0  0  0  0  0  0  0999 V2000
    0.8280   -0.0295    0.0000 C   0  0  0  0  0  0  0  0  0  0  0  0
    0.3602   -0.0295    0.0000 C   0  0  0  0  0  0  0  0  0  0  0  0
    0.0295   -0.3602    0.0000 C   0  0  0  0  0  0  0  0  0  0  0  0
    0.0295   -0.8280    0.0000 C   0  0  0  0  0  0  0  0  0  0  0  0
    0.3602   -1.1588    0.0000 C   0  0  0  0  0  0  0  0  0  0  0  0
    0.8280   -1.1588    0.0000 C   0  0  0  0  0  0  0  0  0  0  0  0
    1.1588   -0.8280    0.0000 C   0  0  0  0  0  0  0  0  0  0  0  0
    1.1588   -0.3602    0.0000 C   0  0  0  0  0  0  0  0  0  0  0  0
    0.1264    0.3756    0.0000 C   0  0  0  0  0  0  0  0  0  0  0  0
    0.3602    0.7807    0.0000 C   0  0  0  0  0  0  0  0  0  0  0  0
    0.8280    0.7807    0.0000 C   0  0  0  0  0  0  0  0  0  0  0  0
    1.0619    0.3756    0.0000 C   0  0  0  0  0  0  0  0  0  0  0  0
   -0.3756   -1.0619    0.0000 C   0  0  0  0  0  0  0  0  0  0  0  0
   -0.7807   -0.8280    0.0000 C   0  0  0  0  0  0  0  0  0  0  0  0
   -0.7807   -0.3602    0.0000 C   0  0  0  0  0  0  0  0  0  0  0  0
   -0.3756   -0.1264    0.0000 C   0  0  0  0  0  0  0  0  0  0  0  0
    1.0619    1.1858    0.0000 O   0  0  0  0  0  0  0  0  0  0  0  0
   -1.1858   -1.0619    0.0000 O   0  0  0  0  0  0  0  0  0  0  0  0
    1.0070   -1.5909    0.0000 C   0  0  0  0  0  0  0  0  0  0  0  0
    1.5909   -1.0070    0.0000 C   0  0  0  0  0  0  0  0  0  0  0  0
   -0.5356    0.3132    0.0000 O   0  0  0  0  0  0  0  0  0  0  0  0
   -0.9963    0.3944    0.0000 C   0  0  0  0  0  0  0  0  0  0  0  0
   -1.1858   -0.1264    0.0000 O   0  0  0  0  0  0  0  0  0  0  0  0
   -1.5909   -0.3602    0.0000 C   0  0  0  0  0  0  0  0  0  0  0  0
    0.1264    1.1858    0.0000 O   0  0  0  0  0  0  0  0  0  0  0  0
    0.3602    1.5909    0.0000 C   0  0  0  0  0  0  0  0  0  0  0  0
   -0.3132    0.5356    0.0000 O   0  0  0  0  0  0  0  0  0  0  0  0
   -0.3944    0.9963    0.0000 C   0  0  0  0  0  0  0  0  0  0  0  0
  1  2  1  0      
  2  3  1  0      
  3  4  1  0      
  4  5  1  0      
  5  6  1  0      
  6  7  1  0      
  7  8  1  0      
  1  8  1  0      
  9 10  1  0      
 10 11  2  0      
 11 12  1  0      
  1 12  2  0      
  2  9  2  0      
 13 14  1  0      
 14 15  2  0      
 15 16  1  0      
  3 16  2  0      
  4 13  2  0      
 11 17  1  0      
 14 18  1  0      
  6 19  1  0      
  7 20  1  0      
 21 22  1  0      
 16 21  1  0      
 23 24  1  0      
 15 23  1  0      
 25 26  1  0      
 10 25  1  0      
 27 28  1  0      
  9 27  1  0      
M  END

>  <RackCode>
HYCPK72335

>  <Cat. No.>
HY-N0385

>  <Product Name>
Gomisin J

>  <ROW>
J

>  <COLUMN>
10

>  <CAS No.>
66280-25-9

>  <MWt>
388.45

>  <Target>
AMPK; Calcium Channel

>  <Saltdate>
Free Base

>  <Smiles>
OC1=C(OC)C(OC)=C(C2=C(OC)C(OC)=C(O)C=C2CC(C)C(C)C3)C3=C1

>  <Solvent>
DMSO Solution

>  <Batch No.>
149183

>  <Quantity>
10mM  * 50uL

>  <Pathway>
Epigenetics; Membrane Transporter/Ion Channel; Neuronal Signaling; PI3K/Akt/mTOR

>  <Synonyms>


>  <Formula>
C22H28O6

>  <Research_Area>
Metabolic Disease; Cardiovascular Disease

>  <Clinical_Information>
No Development Reported

>  <SUPPLIER>
MedChemExpress

$$$$
Untitled Document
  ChemDraw08081915572D

 23 25  0  0  0  0  0  0  0  0999 V2000
   -0.7145   -0.2062    0.0000 N   0  0  0  0  0  0  0  0  0  0  0  0
   -0.0000    0.2062    0.0000 C   0  0  0  0  0  0  0  0  0  0  0  0
   -0.0000    1.0313    0.0000 N   0  0  0  0  0  0  0  0  0  0  0  0
   -0.7145    1.4437    0.0000 C   0  0  0  0  0  0  0  0  0  0  0  0
   -1.4289    1.0313    0.0000 C   0  0  0  0  0  0  0  0  0  0  0  0
   -2.1434    1.4437    0.0000 C   0  0  0  0  0  0  0  0  0  0  0  0
   -2.8579    1.0313    0.0000 C   0  0  0  0  0  0  0  0  0  0  0  0
   -2.8579    0.2062    0.0000 C   0  0  0  0  0  0  0  0  0  0  0  0
   -2.1434   -0.2062    0.0000 C   0  0  0  0  0  0  0  0  0  0  0  0
   -1.4289    0.2062    0.0000 C   0  0  0  0  0  0  0  0  0  0  0  0
   -0.7145    2.2687    0.0000 O   0  0  0  0  0  0  0  0  0  0  0  0
    0.7145   -0.2062    0.0000 C   0  0  0  0  0  0  0  0  0  0  0  0
    1.4289    0.2062    0.0000 C   0  0  0  0  0  0  0  0  0  0  0  0
    2.1434   -0.2062    0.0000 C   0  0  0  0  0  0  0  0  0  0  0  0
    2.1434   -1.0313    0.0000 C   0  0  0  0  0  0  0  0  0  0  0  0
    1.4289   -1.4437    0.0000 C   0  0  0  0  0  0  0  0  0  0  0  0
    0.7145   -1.0313    0.0000 C   0  0  0  0  0  0  0  0  0  0  0  0
    2.8579   -1.4437    0.0000 C   0  0  0  0  0  0  0  0  0  0  0  0
    2.8579   -2.2687    0.0000 C   0  0  0  0  0  0  0  0  0  0  0  0
    3.5724   -1.0313    0.0000 C   0  0  0  0  0  0  0  0  0  0  0  0
    3.5724   -1.8563    0.0000 O   0  0  0  0  0  0  0  0  0  0  0  0
   -2.1434   -1.0313    0.0000 F   0  0  0  0  0  0  0  0  0  0  0  0
   -3.5724    1.4437    0.0000 F   0  0  0  0  0  0  0  0  0  0  0  0
  1  2  2  0      
  2  3  1  0      
  3  4  1  0      
  4  5  1  0      
  5  6  1  0      
  6  7  2  0      
  7  8  1  0      
  8  9  2  0      
  9 10  1  0      
  1 10  1  0      
  5 10  2  0      
  4 11  2  0      
 12 13  1  0      
 13 14  2  0      
 14 15  1  0      
 15 16  2  0      
 16 17  1  0      
 12 17  2  0      
 18 19  1  0      
 18 20  1  0      
 18 21  1  0      
 15 18  1  0      
  2 12  1  0      
  9 22  1  0      
  7 23  1  0      
M  END

>  <RackCode>
HYCPK72335

>  <Cat. No.>
HY-126248

>  <Product Name>
Tankyrase-IN-2

>  <ROW>
K

>  <COLUMN>
10

>  <CAS No.>
1588870-36-3

>  <MWt>
316.30

>  <Target>
PARP

>  <Saltdate>
Free Base

>  <Smiles>
O=C1NC(C2=CC=C(C(C)(O)C)C=C2)=NC3=C1C=C(F)C=C3F

>  <Solvent>
DMSO Solution

>  <Batch No.>
104036

>  <Quantity>
10mM  * 50uL

>  <Pathway>
Cell Cycle/DNA Damage; Epigenetics

>  <Synonyms>


>  <Formula>
C17H14F2N2O2

>  <Research_Area>
Cancer

>  <Clinical_Information>
No Development Reported

>  <SUPPLIER>
MedChemExpress

$$$$
Untitled Document
  ChemDraw09281613462D

 26 28  0  0  0  0  0  0  0  0999 V2000
    0.7145   -1.4437    0.0000 C   0  0  0  0  0  0  0  0  0  0  0  0
   -0.0000   -1.0313    0.0000 C   0  0  0  0  0  0  0  0  0  0  0  0
   -0.0000   -0.2062    0.0000 C   0  0  0  0  0  0  0  0  0  0  0  0
   -0.7145    0.2062    0.0000 C   0  0  0  0  0  0  0  0  0  0  0  0
   -1.4289   -0.2062    0.0000 C   0  0  0  0  0  0  0  0  0  0  0  0
   -1.4289   -1.0313    0.0000 C   0  0  0  0  0  0  0  0  0  0  0  0
   -0.7145   -1.4437    0.0000 C   0  0  0  0  0  0  0  0  0  0  0  0
    0.7145   -2.2691    0.0000 O   0  0  0  0  0  0  0  0  0  0  0  0
    1.4289   -1.0313    0.0000 N   0  0  0  0  0  0  0  0  0  0  0  0
   -4.2871    1.4438    0.0000 N   0  0  0  0  0  0  0  0  0  0  0  0
   -5.0016    1.0313    0.0000 C   0  0  0  0  0  0  0  0  0  0  0  0
   -5.0016    0.2062    0.0000 C   0  0  0  0  0  0  0  0  0  0  0  0
   -4.2871   -0.2062    0.0000 C   0  0  0  0  0  0  0  0  0  0  0  0
   -3.5727    0.2062    0.0000 C   0  0  0  0  0  0  0  0  0  0  0  0
   -2.8582   -0.2062    0.0000 C   0  0  0  0  0  0  0  0  0  0  0  0
   -2.1437    0.2062    0.0000 C   0  0  0  0  0  0  0  0  0  0  0  0
   -2.1437    1.0313    0.0000 C   0  0  0  0  0  0  0  0  0  0  0  0
   -2.8582    1.4438    0.0000 C   0  0  0  0  0  0  0  0  0  0  0  0
   -3.5727    1.0313    0.0000 C   0  0  0  0  0  0  0  0  0  0  0  0
   -2.8582    2.2691    0.0000 O   0  0  0  0  0  0  0  0  0  0  0  0
    2.1437   -1.4437    0.0000 C   0  0  0  0  0  0  0  0  0  0  0  0
    2.8582   -1.0313    0.0000 C   0  0  0  0  0  0  0  0  0  0  0  0
    3.5727   -1.4437    0.0000 C   0  0  0  0  0  0  0  0  0  0  0  0
    4.2871   -1.0313    0.0000 N   0  0  0  0  0  0  0  0  0  0  0  0
    5.0016   -1.4437    0.0000 C   0  0  0  0  0  0  0  0  0  0  0  0
    4.2871   -0.2062    0.0000 C   0  0  0  0  0  0  0  0  0  0  0  0
  1  2  1  0      
  2  3  1  0      
  3  4  2  0      
  4  5  1  0      
  5  6  2  0      
  6  7  1  0      
  2  7  2  0      
  1  8  2  0      
  1  9  1  0      
 10 11  2  0      
 11 12  1  0      
 12 13  2  0      
 13 14  1  0      
 14 15  2  0      
 15 16  1  0      
 16 17  2  0      
 17 18  1  0      
 18 19  2  0      
 10 19  1  0      
 14 19  1  0      
 18 20  1  0      
  5 16  1  0      
 21 22  1  0      
 22 23  1  0      
 24 25  1  0      
 24 26  1  0      
 23 24  1  0      
  9 21  1  0      
M  END

>  <RackCode>
HYCPK72335

>  <Cat. No.>
HY-12725

>  <Product Name>
ML324

>  <ROW>
L

>  <COLUMN>
10

>  <CAS No.>
1222800-79-4

>  <MWt>
349.43

>  <Target>
CMV; Histone Demethylase; HSV

>  <Saltdate>
Free Base

>  <Smiles>
O=C(NCCCN(C)C)C1=CC=C(C2=CC(O)=C3N=CC=CC3=C2)C=C1

>  <Solvent>
DMSO Solution

>  <Batch No.>
15644

>  <Quantity>
10mM  * 50uL

>  <Pathway>
Anti-infection; Epigenetics

>  <Synonyms>


>  <Formula>
C21H23N3O2

>  <Research_Area>
Cancer

>  <Clinical_Information>
No Development Reported

>  <SUPPLIER>
MedChemExpress

$$$$
Untitled Document
  ChemDraw08062108472D

 31 34  0  0  0  0  0  0  0  0999 V2000
    2.6015    0.6112    0.0000 C   0  0  0  0  0  0  0  0  0  0  0  0
    3.1535   -0.0019    0.0000 C   0  0  0  0  0  0  0  0  0  0  0  0
    3.9605    0.1696    0.0000 C   0  0  0  0  0  0  0  0  0  0  0  0
    4.2154    0.9543    0.0000 C   0  0  0  0  0  0  0  0  0  0  0  0
    3.6634    1.5673    0.0000 C   0  0  0  0  0  0  0  0  0  0  0  0
    2.8564    1.3958    0.0000 C   0  0  0  0  0  0  0  0  0  0  0  0
    1.7946    0.4397    0.0000 S   0  0  0  0  0  0  0  0  0  0  0  0
    1.9660   -0.3673    0.0000 O   0  0  0  0  0  0  0  0  0  0  0  0
    1.6231    1.2466    0.0000 O   0  0  0  0  0  0  0  0  0  0  0  0
    0.9876    0.2681    0.0000 N   0  0  0  0  0  0  0  0  0  0  0  0
    0.7327   -1.8514    0.0000 O   0  0  0  0  0  0  0  0  0  0  0  0
    1.2176   -1.1839    0.0000 N   0  0  0  0  0  0  0  0  0  0  0  0
    0.7327   -0.5165    0.0000 C   0  0  0  0  0  0  0  0  0  0  0  0
   -0.0519   -0.7714    0.0000 C   0  0  0  0  0  0  0  0  0  0  0  0
   -0.7664   -0.3589    0.0000 C   0  0  0  0  0  0  0  0  0  0  0  0
   -1.4809   -0.7714    0.0000 C   0  0  0  0  0  0  0  0  0  0  0  0
   -1.4809   -1.5964    0.0000 C   0  0  0  0  0  0  0  0  0  0  0  0
   -0.7664   -2.0088    0.0000 C   0  0  0  0  0  0  0  0  0  0  0  0
   -0.0519   -1.5964    0.0000 C   0  0  0  0  0  0  0  0  0  0  0  0
   -2.1952   -2.0088    0.0000 C   0  0  0  0  0  0  0  0  0  0  0  0
   -2.9097   -1.5964    0.0000 N   0  0  0  0  0  0  0  0  0  0  0  0
   -3.6634   -1.9319    0.0000 N   0  0  0  0  0  0  0  0  0  0  0  0
   -4.2154   -1.3189    0.0000 C   0  0  0  0  0  0  0  0  0  0  0  0
   -3.8029   -0.6044    0.0000 C   0  0  0  0  0  0  0  0  0  0  0  0
   -2.9959   -0.7759    0.0000 C   0  0  0  0  0  0  0  0  0  0  0  0
   -0.7664    0.4661    0.0000 O   0  0  0  0  0  0  0  0  0  0  0  0
   -1.4809    0.8786    0.0000 C   0  0  0  0  0  0  0  0  0  0  0  0
    2.3044    2.0088    0.0000 O   0  0  0  0  0  0  0  0  0  0  0  0
    1.4975    1.8374    0.0000 C   0  0  0  0  0  0  0  0  0  0  0  0
    2.8986   -0.7865    0.0000 O   0  0  0  0  0  0  0  0  0  0  0  0
    2.0916   -0.9580    0.0000 C   0  0  0  0  0  0  0  0  0  0  0  0
  1  2  1  0      
  2  3  2  0      
  3  4  1  0      
  4  5  2  0      
  5  6  1  0      
  1  6  2  0      
  7  8  2  0      
  7  9  2  0      
  7 10  1  0      
  1  7  1  0      
 11 12  1  0      
 12 13  2  0      
 13 14  1  0      
 14 15  1  0      
 15 16  2  0      
 16 17  1  0      
 17 18  2  0      
 18 19  1  0      
 11 19  1  0      
 14 19  2  0      
 21 22  1  0      
 22 23  2  0      
 23 24  1  0      
 24 25  2  0      
 21 25  1  0      
 20 21  1  0      
 17 20  1  0      
 26 27  1  0      
 15 26  1  0      
 10 13  1  0      
 28 29  1  0      
  6 28  1  0      
 30 31  1  0      
  2 30  1  0      
M  END

>  <RackCode>
HYCPK72335

>  <Cat. No.>
HY-132283

>  <Product Name>
PF-9363

>  <ROW>
M

>  <COLUMN>
10

>  <CAS No.>
2569009-58-9

>  <MWt>
444.46

>  <Target>
Histone Acetyltransferase

>  <Saltdate>


>  <Smiles>
O=S(C1=C(OC)C=CC=C1OC)(NC2=NOC3=C2C(OC)=CC(CN4N=CC=C4)=C3)=O

>  <Solvent>
DMSO Solution

>  <Batch No.>
153132

>  <Quantity>
10mM  * 50uL

>  <Pathway>
Epigenetics

>  <Synonyms>
CTx-648

>  <Formula>
C20H20N4O6S

>  <Research_Area>
Cancer

>  <Clinical_Information>
No Development Reported

>  <SUPPLIER>
MedChemExpress

$$$$
Untitled Document
  ChemDraw07042308522D

 24 25  0  0  0  0  0  0  0  0999 V2000
   -2.1002    2.8656    0.0000 O   0  0  0  0  0  0  0  0  0  0  0  0
   -2.5851    2.1983    0.0000 C   0  0  0  0  0  0  0  0  0  0  0  0
   -3.4055    2.2845    0.0000 O   0  0  0  0  0  0  0  0  0  0  0  0
   -3.7411    3.0381    0.0000 C   0  0  0  0  0  0  0  0  0  0  0  0
   -2.2496    1.4446    0.0000 C   0  0  0  0  0  0  0  0  0  0  0  0
   -1.4291    1.3584    0.0000 C   0  0  0  0  0  0  0  0  0  0  0  0
   -1.0935    0.6047    0.0000 C   0  0  0  0  0  0  0  0  0  0  0  0
   -1.5785   -0.0627    0.0000 C   0  0  0  0  0  0  0  0  0  0  0  0
   -1.2429   -0.8164    0.0000 O   0  0  0  0  0  0  0  0  0  0  0  0
   -0.4224   -0.9026    0.0000 C   0  0  0  0  0  0  0  0  0  0  0  0
    0.1296   -0.2895    0.0000 S   0  0  0  0  0  0  0  0  0  0  0  0
    0.8833   -0.6251    0.0000 C   0  0  0  0  0  0  0  0  0  0  0  0
    0.7971   -1.4456    0.0000 C   0  0  0  0  0  0  0  0  0  0  0  0
   -0.0099   -1.6171    0.0000 C   0  0  0  0  0  0  0  0  0  0  0  0
   -0.3455   -2.3708    0.0000 N   0  3  0  0  0  0  0  0  0  0  0  0
    0.1394   -3.0381    0.0000 O   0  5  0  0  0  0  0  0  0  0  0  0
   -1.1660   -2.4570    0.0000 O   0  0  0  0  0  0  0  0  0  0  0  0
    1.5978   -0.2126    0.0000 C   0  0  0  0  0  0  0  0  0  0  0  0
    1.5978    0.6124    0.0000 O   0  0  0  0  0  0  0  0  0  0  0  0
    2.3122   -0.6251    0.0000 O   0  0  0  0  0  0  0  0  0  0  0  0
    3.0266   -0.2126    0.0000 C   0  0  0  0  0  0  0  0  0  0  0  0
    3.7411   -0.6251    0.0000 C   0  0  0  0  0  0  0  0  0  0  0  0
   -2.3989    0.0235    0.0000 C   0  0  0  0  0  0  0  0  0  0  0  0
   -2.7344    0.7772    0.0000 C   0  0  0  0  0  0  0  0  0  0  0  0
  1  2  2  0      
  2  3  1  0      
  3  4  1  0      
  2  5  1  0      
  5  6  2  0      
  6  7  1  0      
  7  8  2  0      
  8  9  1  0      
  9 10  1  0      
 10 11  1  0      
 11 12  1  0      
 12 13  2  0      
 13 14  1  0      
 10 14  2  0      
 14 15  1  0      
 15 16  1  0      
 15 17  2  0      
 12 18  1  0      
 18 19  2  0      
 18 20  1  0      
 20 21  1  0      
 21 22  1  0      
  8 23  1  0      
 23 24  2  0      
  5 24  1  0      
M  CHG  2  15   1  16  -1
M  END

>  <RackCode>
HYCPK72335

>  <Cat. No.>
HY-153886

>  <Product Name>
Wu-5

>  <ROW>
N

>  <COLUMN>
10

>  <CAS No.>
2630378-05-9

>  <MWt>
351.33

>  <Target>
AMPK; Apoptosis; FLT3

>  <Saltdate>


>  <Smiles>
O=C(C1=CC=C(C=C1)OC2=C([N+]([O-])=O)C=C(C(OCC)=O)S2)OC

>  <Solvent>
DMSO Solution

>  <Batch No.>
292031

>  <Quantity>
10mM  * 50uL

>  <Pathway>
Apoptosis; Epigenetics; PI3K/Akt/mTOR; Protein Tyrosine Kinase/RTK

>  <Synonyms>


>  <Formula>
C15H13NO7S

>  <Research_Area>
Cancer

>  <Clinical_Information>
No Development Reported

>  <SUPPLIER>
MedChemExpress

$$$$
Untitled Document
  ChemDraw07271712492D

 26 28  0  0  0  0  0  0  0  0999 V2000
   -0.0000    0.4125    0.0000 C   0  0  0  0  0  0  0  0  0  0  0  0
   -0.7145    0.0000    0.0000 C   0  0  0  0  0  0  0  0  0  0  0  0
   -0.7145   -0.8250    0.0000 C   0  0  0  0  0  0  0  0  0  0  0  0
   -1.4289   -1.2375    0.0000 C   0  0  0  0  0  0  0  0  0  0  0  0
   -2.1434   -0.8250    0.0000 C   0  0  0  0  0  0  0  0  0  0  0  0
   -2.1434    0.0000    0.0000 C   0  0  0  0  0  0  0  0  0  0  0  0
   -1.4289    0.4125    0.0000 C   0  0  0  0  0  0  0  0  0  0  0  0
   -0.0000    1.2375    0.0000 O   0  0  0  0  0  0  0  0  0  0  0  0
    0.7145    0.0000    0.0000 N   0  0  0  0  0  0  0  0  0  0  0  0
    1.4289    0.4125    0.0000 N   0  0  0  0  0  0  0  0  0  0  0  0
    2.1434    0.0000    0.0000 S   0  0  0  0  0  0  0  0  0  0  0  0
    1.7309   -0.7145    0.0000 O   0  0  0  0  0  0  0  0  0  0  0  0
    2.5559    0.7145    0.0000 O   0  0  0  0  0  0  0  0  0  0  0  0
    2.8579   -0.4125    0.0000 C   0  0  0  0  0  0  0  0  0  0  0  0
    3.5724    0.0000    0.0000 C   0  0  0  0  0  0  0  0  0  0  0  0
    4.2868   -0.4125    0.0000 C   0  0  0  0  0  0  0  0  0  0  0  0
    4.2868   -1.2375    0.0000 C   0  0  0  0  0  0  0  0  0  0  0  0
    3.5724   -1.6500    0.0000 C   0  0  0  0  0  0  0  0  0  0  0  0
    2.8579   -1.2375    0.0000 C   0  0  0  0  0  0  0  0  0  0  0  0
   -2.8579    1.2375    0.0000 C   0  0  0  0  0  0  0  0  0  0  0  0
   -2.8579    0.4125    0.0000 C   0  0  0  0  0  0  0  0  0  0  0  0
   -3.5724    0.0000    0.0000 C   0  0  0  0  0  0  0  0  0  0  0  0
   -4.2868    0.4125    0.0000 C   0  0  0  0  0  0  0  0  0  0  0  0
   -4.2868    1.2375    0.0000 N   0  0  0  0  0  0  0  0  0  0  0  0
   -3.5724    1.6500    0.0000 N   0  0  0  0  0  0  0  0  0  0  0  0
   -0.0000   -1.2375    0.0000 F   0  0  0  0  0  0  0  0  0  0  0  0
  1  2  1  0      
  2  3  1  0      
  3  4  2  0      
  4  5  1  0      
  5  6  2  0      
  6  7  1  0      
  2  7  2  0      
  1  8  2  0      
  9 10  1  0      
 11 12  2  0      
 11 13  2  0      
 14 15  1  0      
 15 16  2  0      
 16 17  1  0      
 17 18  2  0      
 18 19  1  0      
 14 19  2  0      
 11 14  1  0      
 10 11  1  0      
  1  9  1  0      
 20 21  1  0      
 21 22  2  0      
 22 23  1  0      
 23 24  2  0      
 24 25  1  0      
 20 25  2  0      
  6 21  1  0      
  3 26  1  0      
M  END

>  <RackCode>
HYCPK72335

>  <Cat. No.>
HY-102059

>  <Product Name>
MOZ-IN-2

>  <ROW>
O

>  <COLUMN>
10

>  <CAS No.>
2055397-88-9

>  <MWt>
372.37

>  <Target>
Histone Acetyltransferase

>  <Saltdate>
Free Base

>  <Smiles>
O=C(NNS(=O)(C1=CC=CC=C1)=O)C2=CC(C3=CC=NN=C3)=CC=C2F

>  <Solvent>
DMSO Solution

>  <Batch No.>
242389

>  <Quantity>
10mM  * 50uL

>  <Pathway>
Epigenetics

>  <Synonyms>


>  <Formula>
C17H13FN4O3S

>  <Research_Area>
Cancer

>  <Clinical_Information>
No Development Reported

>  <SUPPLIER>
MedChemExpress

$$$$
Untitled Document
  ChemDraw12032013592D

 20 22  0  0  0  0  0  0  0  0999 V2000
   -0.7697   -2.4750    0.0000 C   0  0  0  0  0  0  0  0  0  0  0  0
   -1.4842   -2.0625    0.0000 N   0  0  0  0  0  0  0  0  0  0  0  0
   -1.4842   -1.2375    0.0000 C   0  0  0  0  0  0  0  0  0  0  0  0
   -0.7697   -0.8250    0.0000 C   0  0  0  0  0  0  0  0  0  0  0  0
   -0.0553   -1.2375    0.0000 C   0  0  0  0  0  0  0  0  0  0  0  0
    0.6592   -0.8250    0.0000 C   0  0  0  0  0  0  0  0  0  0  0  0
    1.3737   -1.2375    0.0000 C   0  0  0  0  0  0  0  0  0  0  0  0
    1.3737   -2.0625    0.0000 C   0  0  0  0  0  0  0  0  0  0  0  0
    0.6592   -2.4750    0.0000 C   0  0  0  0  0  0  0  0  0  0  0  0
   -0.0553   -2.0625    0.0000 C   0  0  0  0  0  0  0  0  0  0  0  0
    0.6592    0.0000    0.0000 S   0  0  0  0  0  0  0  0  0  0  0  0
    1.4842    0.0000    0.0000 O   0  0  0  0  0  0  0  0  0  0  0  0
   -0.1658    0.0000    0.0000 O   0  0  0  0  0  0  0  0  0  0  0  0
    0.6592    0.8250    0.0000 N   0  0  0  0  0  0  0  0  0  0  0  0
   -0.0553    1.2375    0.0000 C   0  0  0  0  0  0  0  0  0  0  0  0
   -0.0553    2.0625    0.0000 C   0  0  0  0  0  0  0  0  0  0  0  0
    0.6592    2.4750    0.0000 N   0  0  0  0  0  0  0  0  0  0  0  0
    1.3737    2.0625    0.0000 C   0  0  0  0  0  0  0  0  0  0  0  0
    1.3737    1.2375    0.0000 C   0  0  0  0  0  0  0  0  0  0  0  0
   -0.7697    0.8250    0.0000 C   0  0  0  0  0  0  0  0  0  0  0  0
  1  2  2  0      
  2  3  1  0      
  3  4  2  0      
  4  5  1  0      
  5  6  1  0      
  6  7  2  0      
  7  8  1  0      
  8  9  2  0      
  9 10  1  0      
  1 10  1  0      
  5 10  2  0      
 11 12  2  0      
 11 13  2  0      
 14 15  1  0      
 15 16  1  0      
 16 17  1  0      
 17 18  1  0      
 18 19  1  0      
 14 19  1  0      
 15 20  1  0      
 11 14  1  0      
  6 11  1  0      
M  END

>  <RackCode>
HYCPK72335

>  <Cat. No.>
HY-131900

>  <Product Name>
Protein kinase inhibitor H-7

>  <ROW>
P

>  <COLUMN>
10

>  <CAS No.>
84477-87-2

>  <MWt>
291.37

>  <Target>
PKC

>  <Saltdate>


>  <Smiles>
O=S(C1=CC=CC2=C1C=CN=C2)(N3C(C)CNCC3)=O

>  <Solvent>
DMSO Solution

>  <Batch No.>
228432

>  <Quantity>
10mM  * 50uL

>  <Pathway>
Epigenetics; TGF-beta/Smad

>  <Synonyms>


>  <Formula>
C14H17N3O2S

>  <Research_Area>
Cancer

>  <Clinical_Information>
No Development Reported

>  <SUPPLIER>
MedChemExpress

$$$$
Untitled Document
  ChemDraw12202117232D

 24 26  0  0  0  0  0  0  0  0999 V2000
    0.4559   -0.8236    0.0000 O   0  0  0  0  0  0  0  0  0  0  0  0
    0.4559    0.0014    0.0000 C   0  0  0  0  0  0  0  0  0  0  0  0
   -0.2586    0.4139    0.0000 N   0  0  0  0  0  0  0  0  0  0  0  0
   -0.9731    0.0014    0.0000 C   0  0  0  0  0  0  0  0  0  0  0  0
   -1.7267    0.3370    0.0000 N   0  0  0  0  0  0  0  0  0  0  0  0
   -2.2788   -0.2761    0.0000 C   0  0  0  0  0  0  0  0  0  0  0  0
   -1.8663   -0.9906    0.0000 C   0  0  0  0  0  0  0  0  0  0  0  0
   -1.0593   -0.8190    0.0000 S   0  0  0  0  0  0  0  0  0  0  0  0
   -3.0963   -0.1902    0.0000 C   0  0  0  0  0  0  0  0  0  0  0  0
   -3.5841   -0.8573    0.0000 C   0  0  0  0  0  0  0  0  0  0  0  0
   -4.4046   -0.7711    0.0000 C   0  0  0  0  0  0  0  0  0  0  0  0
   -4.7401   -0.0174    0.0000 C   0  0  0  0  0  0  0  0  0  0  0  0
   -4.2552    0.6500    0.0000 C   0  0  0  0  0  0  0  0  0  0  0  0
   -3.4347    0.5638    0.0000 C   0  0  0  0  0  0  0  0  0  0  0  0
    1.1703    0.4139    0.0000 N   0  0  0  0  0  0  0  0  0  0  0  0
    1.8848    0.0014    0.0000 C   0  0  0  0  0  0  0  0  0  0  0  0
    1.8848   -0.8236    0.0000 C   0  0  0  0  0  0  0  0  0  0  0  0
    2.5992   -1.2361    0.0000 C   0  0  0  0  0  0  0  0  0  0  0  0
    3.3137   -0.8236    0.0000 C   0  0  0  0  0  0  0  0  0  0  0  0
    3.3137    0.0014    0.0000 C   0  0  0  0  0  0  0  0  0  0  0  0
    2.5992    0.4139    0.0000 C   0  0  0  0  0  0  0  0  0  0  0  0
    4.0281    0.4139    0.0000 N   0  3  0  0  0  0  0  0  0  0  0  0
    4.0281    1.2361    0.0000 O   0  0  0  0  0  0  0  0  0  0  0  0
    4.7401    0.0029    0.0000 O   0  5  0  0  0  0  0  0  0  0  0  0
  1  2  2  0      
  2  3  1  0      
  3  4  1  0      
  4  5  2  0      
  5  6  1  0      
  6  7  2  0      
  7  8  1  0      
  4  8  1  0      
  6  9  1  0      
  9 10  1  0      
 10 11  2  0      
 11 12  1  0      
 12 13  2  0      
 13 14  1  0      
  9 14  2  0      
  2 15  1  0      
 15 16  1  0      
 16 17  2  0      
 17 18  1  0      
 18 19  2  0      
 19 20  1  0      
 20 21  2  0      
 16 21  1  0      
 20 22  1  0      
 22 24  1  0      
 22 23  2  0      
M  CHG  2  22   1  24  -1
M  END

>  <RackCode>
HYCPK72335

>  <Cat. No.>
HY-141890

>  <Product Name>
BAZ1A-IN-1

>  <ROW>
A

>  <COLUMN>
11

>  <CAS No.>
941521-45-5

>  <MWt>
340.36

>  <Target>
Epigenetic Reader Domain

>  <Saltdate>


>  <Smiles>
O=C(NC1=CC=CC([N+]([O-])=O)=C1)NC2=NC(C3=CC=CC=C3)=CS2

>  <Solvent>
DMSO Solution

>  <Batch No.>
130844

>  <Quantity>
10mM  * 50uL

>  <Pathway>
Epigenetics

>  <Synonyms>


>  <Formula>
C16H12N4O3S

>  <Research_Area>
Cancer

>  <Clinical_Information>
No Development Reported

>  <SUPPLIER>
MedChemExpress

$$$$
Untitled Document
  ChemDraw08302216392D

 41 44  0  0  0  0  0  0  0  0999 V2000
    1.8054    0.0835    0.0000 N   0  0  0  0  0  0  0  0  0  0  0  0
    1.0910   -0.3290    0.0000 C   0  0  0  0  0  0  0  0  0  0  0  0
    0.3765    0.0835    0.0000 C   0  0  0  0  0  0  0  0  0  0  0  0
   -0.3379   -0.3290    0.0000 C   0  0  0  0  0  0  0  0  0  0  0  0
   -1.0524    0.0835    0.0000 C   0  0  0  0  0  0  0  0  0  0  0  0
   -1.0524    0.9085    0.0000 C   0  0  0  0  0  0  0  0  0  0  0  0
   -1.7668    1.3210    0.0000 O   0  0  0  0  0  0  0  0  0  0  0  0
   -0.3379    1.3210    0.0000 N   0  0  0  0  0  0  0  0  0  0  0  0
   -0.3379    2.1459    0.0000 C   0  0  0  0  0  0  0  0  0  0  0  0
    0.3765    2.5584    0.0000 C   0  0  0  0  0  0  0  0  0  0  0  0
    1.0910    2.1459    0.0000 N   0  0  0  0  0  0  0  0  0  0  0  0
    1.8054    2.5584    0.0000 C   0  0  0  0  0  0  0  0  0  0  0  0
    1.0910    1.3210    0.0000 C   0  0  0  0  0  0  0  0  0  0  0  0
    0.3765    0.9085    0.0000 C   0  0  0  0  0  0  0  0  0  0  0  0
   -1.7668   -0.3290    0.0000 N   0  0  0  0  0  0  0  0  0  0  0  0
   -2.4813    0.0835    0.0000 C   0  0  0  0  0  0  0  0  0  0  0  0
   -2.4813    0.9085    0.0000 O   0  0  0  0  0  0  0  0  0  0  0  0
   -3.1957   -0.3290    0.0000 C   0  0  0  0  0  0  0  0  0  0  0  0
   -3.9102    0.0835    0.0000 C   0  0  0  0  0  0  0  0  0  0  0  0
   -4.6247   -0.3290    0.0000 C   0  0  0  0  0  0  0  0  0  0  0  0
   -4.6247   -1.1540    0.0000 C   0  0  0  0  0  0  0  0  0  0  0  0
   -3.9102   -1.5665    0.0000 C   0  0  0  0  0  0  0  0  0  0  0  0
   -3.1957   -1.1540    0.0000 C   0  0  0  0  0  0  0  0  0  0  0  0
   -5.3390   -1.5665    0.0000 N   0  0  0  0  0  0  0  0  0  0  0  0
   -6.0927   -1.2309    0.0000 C   0  0  0  0  0  0  0  0  0  0  0  0
   -6.6447   -1.8439    0.0000 C   0  0  0  0  0  0  0  0  0  0  0  0
   -6.2322   -2.5584    0.0000 N   0  0  0  0  0  0  0  0  0  0  0  0
   -5.4253   -2.3869    0.0000 N   0  0  0  0  0  0  0  0  0  0  0  0
    2.5198   -0.3290    0.0000 C   0  0  0  0  0  0  0  0  0  0  0  0
    3.3448   -0.3290    0.0000 C   0  0  0  0  0  0  0  0  0  0  0  0
    2.9323   -1.0435    0.0000 C   0  0  0  0  0  0  0  0  0  0  0  0
    4.1698   -0.3290    0.0000 C   0  0  0  0  0  0  0  0  0  0  0  0
    4.5823   -1.0435    0.0000 C   0  0  0  0  0  0  0  0  0  0  0  0
    5.4072   -1.0435    0.0000 C   0  0  0  0  0  0  0  0  0  0  0  0
    5.8197   -0.3290    0.0000 C   0  0  0  0  0  0  0  0  0  0  0  0
    6.6447   -0.3290    0.0000 F   0  0  0  0  0  0  0  0  0  0  0  0
    5.4072    0.3855    0.0000 C   0  0  0  0  0  0  0  0  0  0  0  0
    4.5823    0.3855    0.0000 C   0  0  0  0  0  0  0  0  0  0  0  0
    3.7573    0.3855    0.0000 H   0  0  0  0  0  0  0  0  0  0  0  0
   -0.7225   -2.1979    0.0000 H   0  0  0  0  0  0  0  0  0  0  0  0
    0.1025   -2.1979    0.0000 Cl  0  0  0  0  0  0  0  0  0  0  0  0
  1  2  1  0      
  2  3  1  0      
  3  4  1  0      
  4  5  1  0      
  5  6  1  6      
  6  7  2  0      
  6  8  1  0      
  8  9  1  0      
  9 10  1  0      
 10 11  1  0      
 11 12  1  0      
 11 13  1  0      
 13 14  1  0      
  8 14  1  0      
  5 15  1  0      
 15 16  1  0      
 16 17  2  0      
 16 18  1  0      
 18 19  2  0      
 19 20  1  0      
 20 21  2  0      
 21 22  1  0      
 22 23  2  0      
 18 23  1  0      
 21 24  1  0      
 24 25  1  0      
 25 26  2  0      
 26 27  1  0      
 27 28  2  0      
 24 28  1  0      
 29  1  1  1      
 29 30  1  0      
 30 31  1  0      
 29 31  1  0      
 30 32  1  6      
 32 33  2  0      
 33 34  1  0      
 34 35  2  0      
 35 36  1  0      
 35 37  1  0      
 37 38  2  0      
 32 38  1  0      
 30 39  1  1      
 40 41  1  0      
M  END

>  <RackCode>
HYCPK72335

>  <Cat. No.>
HY-109169B

>  <Product Name>
Bomedemstat (hydrochloride)

>  <ROW>
B

>  <COLUMN>
11

>  <CAS No.>


>  <MWt>
556.07

>  <Target>
Apoptosis; Histone Demethylase

>  <Saltdate>
Hydrochloride

>  <Smiles>
O=C(N1CCN(CC1)C)[C@@H](NC(C2=CC=C(N3C=CN=N3)C=C2)=O)CCCN[C@H]4[C@@](C5=CC=C(C=C5)F)([H])C4.[H]Cl

>  <Solvent>
DMSO Solution

>  <Batch No.>
217520

>  <Quantity>
10mM  * 50uL

>  <Pathway>
Apoptosis; Epigenetics

>  <Synonyms>
IMG-7289 (hydrochloride)

>  <Formula>
C28H35ClFN7O2

>  <Research_Area>
Cancer

>  <Clinical_Information>
Phase 3

>  <SUPPLIER>
MedChemExpress

$$$$
Untitled Document
  ChemDraw10211611082D

 24 26  0  0  0  0  0  0  0  0999 V2000
   -1.7937    1.0342    0.0000 C   0  0  0  0  0  0  0  0  0  0  0  0
   -1.0764    0.6266    0.0000 N   0  0  0  0  0  0  0  0  0  0  0  0
   -1.0703   -0.1984    0.0000 C   0  0  0  0  0  0  0  0  0  0  0  0
   -1.7814   -0.6167    0.0000 C   0  0  0  0  0  0  0  0  0  0  0  0
   -2.4988   -0.2093    0.0000 C   0  0  0  0  0  0  0  0  0  0  0  0
   -3.2103   -0.6268    0.0000 C   0  0  0  0  0  0  0  0  0  0  0  0
   -3.9277   -0.2194    0.0000 C   0  0  0  0  0  0  0  0  0  0  0  0
   -3.9336    0.6056    0.0000 C   0  0  0  0  0  0  0  0  0  0  0  0
   -3.2220    1.0231    0.0000 C   0  0  0  0  0  0  0  0  0  0  0  0
   -2.5046    0.6157    0.0000 C   0  0  0  0  0  0  0  0  0  0  0  0
   -3.2044   -1.4518    0.0000 C   0  0  0  0  0  0  0  0  0  0  0  0
   -2.4870   -1.8592    0.0000 C   0  0  0  0  0  0  0  0  0  0  0  0
   -1.7755   -1.4416    0.0000 C   0  0  0  0  0  0  0  0  0  0  0  0
    3.2103    0.6571    0.0000 C   0  0  0  0  0  0  0  0  0  0  0  0
    2.4929    1.0645    0.0000 C   0  0  0  0  0  0  0  0  0  0  0  0
    1.7814    0.6469    0.0000 C   0  0  0  0  0  0  0  0  0  0  0  0
    1.0640    1.0543    0.0000 C   0  0  0  0  0  0  0  0  0  0  0  0
    0.3525    0.6367    0.0000 C   0  0  0  0  0  0  0  0  0  0  0  0
   -0.3649    1.0442    0.0000 C   0  0  0  0  0  0  0  0  0  0  0  0
    3.9218    1.0746    0.0000 O   0  0  0  0  0  0  0  0  0  0  0  0
    3.2162   -0.1679    0.0000 N   0  0  0  0  0  0  0  0  0  0  0  0
   -0.3529   -0.6058    0.0000 O   0  0  0  0  0  0  0  0  0  0  0  0
   -1.7995    1.8592    0.0000 O   0  0  0  0  0  0  0  0  0  0  0  0
    3.9336   -0.5753    0.0000 O   0  0  0  0  0  0  0  0  0  0  0  0
  1  2  1  0      
  2  3  1  0      
  3  4  1  0      
  4  5  1  0      
  5  6  1  0      
  6  7  2  0      
  7  8  1  0      
  8  9  2  0      
  9 10  1  0      
  1 10  1  0      
  5 10  2  0      
 11 12  2  0      
 12 13  1  0      
  4 13  2  0      
  6 11  1  0      
 14 15  1  0      
 15 16  1  0      
 16 17  1  0      
 17 18  1  0      
 18 19  1  0      
 14 20  2  0      
 14 21  1  0      
  2 19  1  0      
  3 22  2  0      
  1 23  2  0      
 21 24  1  0      
M  END

>  <RackCode>
HYCPK72335

>  <Cat. No.>
HY-15489

>  <Product Name>
Scriptaid

>  <ROW>
C

>  <COLUMN>
11

>  <CAS No.>
287383-59-9

>  <MWt>
326.35

>  <Target>
Apoptosis; Autophagy; HDAC; Influenza Virus

>  <Saltdate>
Free Base

>  <Smiles>
O=C(NO)CCCCCN(C(C1=CC=CC2=CC=CC3=C12)=O)C3=O

>  <Solvent>
DMSO Solution

>  <Batch No.>
26283

>  <Quantity>
10mM  * 50uL

>  <Pathway>
Anti-infection; Apoptosis; Autophagy; Cell Cycle/DNA Damage; Epigenetics

>  <Synonyms>
Scriptide; GCK1026

>  <Formula>
C18H18N2O4

>  <Research_Area>
Cancer

>  <Clinical_Information>
No Development Reported

>  <SUPPLIER>
MedChemExpress

$$$$
Untitled Document
  ChemDraw11231616572D

 53 54  0  0  0  0  0  0  0  0999 V2000
   -0.7145    0.8950    0.0000 C   0  0  0  0  0  0  0  0  0  0  0  0
   -1.4289    1.3075    0.0000 C   0  0  0  0  0  0  0  0  0  0  0  0
   -2.1434    0.8950    0.0000 C   0  0  0  0  0  0  0  0  0  0  0  0
   -0.7145    0.0700    0.0000 O   0  0  0  0  0  0  0  0  0  0  0  0
   -0.0000    1.3075    0.0000 N   0  0  0  0  0  0  0  0  0  0  0  0
    0.7145    0.8950    0.0000 C   0  0  0  0  0  0  0  0  0  0  0  0
    1.4289    1.3075    0.0000 C   0  0  0  0  0  0  0  0  0  0  0  0
    2.1434    0.8950    0.0000 N   0  0  0  0  0  0  0  0  0  0  0  0
    2.8579    1.3075    0.0000 C   0  0  0  0  0  0  0  0  0  0  0  0
    3.5724    0.8950    0.0000 C   0  0  0  0  0  0  0  0  0  0  0  0
    5.0013    0.0700    0.0000 O   0  0  0  0  0  0  0  0  0  0  0  0
    5.7158   -0.3425    0.0000 C   0  0  0  0  0  0  0  0  0  0  0  0
    6.4302    0.0700    0.0000 C   0  0  0  0  0  0  0  0  0  0  0  0
    6.4302    0.8950    0.0000 N   0  0  0  0  0  0  0  0  0  0  0  0
    5.7158    1.3075    0.0000 C   0  0  0  0  0  0  0  0  0  0  0  0
    5.0013    0.8950    0.0000 C   0  0  0  0  0  0  0  0  0  0  0  0
    5.7158    2.1325    0.0000 C   0  0  0  0  0  0  0  0  0  0  0  0
    5.0013    2.5450    0.0000 C   0  0  0  0  0  0  0  0  0  0  0  0
    4.2868    2.1325    0.0000 C   0  0  0  0  0  0  0  0  0  0  0  0
    4.2868    1.3075    0.0000 C   0  0  0  0  0  0  0  0  0  0  0  0
    7.1447   -0.3425    0.0000 O   0  0  0  0  0  0  0  0  0  0  0  0
    6.4302    2.5450    0.0000 O   0  0  0  0  0  0  0  0  0  0  0  0
   -2.8579    1.3075    0.0000 N   0  0  0  0  0  0  0  0  0  0  0  0
   -3.5724    0.8950    0.0000 C   0  0  0  0  0  0  0  0  0  0  0  0
   -4.2868    1.3075    0.0000 C   0  0  0  0  0  0  0  0  0  0  0  0
   -5.0013    0.8950    0.0000 C   0  0  0  0  0  0  0  0  0  0  0  0
   -5.7158    1.3075    0.0000 C   0  0  0  0  0  0  0  0  0  0  0  0
   -6.4302    0.8950    0.0000 C   0  0  0  0  0  0  0  0  0  0  0  0
   -6.4302    0.0700    0.0000 C   0  0  0  0  0  0  0  0  0  0  0  0
   -5.7158   -0.3425    0.0000 C   0  0  0  0  0  0  0  0  0  0  0  0
   -5.0013    0.0700    0.0000 C   0  0  0  0  0  0  0  0  0  0  0  0
   -7.1447   -0.3425    0.0000 Cl  0  0  0  0  0  0  0  0  0  0  0  0
   -7.1447    1.3075    0.0000 Cl  0  0  0  0  0  0  0  0  0  0  0  0
   -0.0000    2.1325    0.0000 C   0  0  0  0  0  0  0  0  0  0  0  0
   -0.7145    2.5450    0.0000 C   0  0  0  0  0  0  0  0  0  0  0  0
   -0.7145    3.3700    0.0000 C   0  0  0  0  0  0  0  0  0  0  0  0
   -0.0000    3.7825    0.0000 C   0  0  0  0  0  0  0  0  0  0  0  0
    0.7145    3.3700    0.0000 C   0  0  0  0  0  0  0  0  0  0  0  0
    0.7145    2.5450    0.0000 C   0  0  0  0  0  0  0  0  0  0  0  0
   -3.2558   -2.9603    0.0000 C   0  0  0  0  0  0  0  0  0  0  0  0
   -2.5413   -2.5478    0.0000 C   0  0  0  0  0  0  0  0  0  0  0  0
   -2.5413   -1.7257    0.0000 O   0  0  0  0  0  0  0  0  0  0  0  0
   -1.8293   -2.9590    0.0000 O   0  0  0  0  0  0  0  0  0  0  0  0
   -3.2558   -3.7825    0.0000 F   0  0  0  0  0  0  0  0  0  0  0  0
   -3.9678   -2.5492    0.0000 F   0  0  0  0  0  0  0  0  0  0  0  0
   -3.2558   -2.1382    0.0000 F   0  0  0  0  0  0  0  0  0  0  0  0
    0.9895   -2.8143    0.0000 C   0  0  0  0  0  0  0  0  0  0  0  0
    1.7040   -2.4018    0.0000 C   0  0  0  0  0  0  0  0  0  0  0  0
    1.7040   -1.5797    0.0000 O   0  0  0  0  0  0  0  0  0  0  0  0
    2.4160   -2.8129    0.0000 O   0  0  0  0  0  0  0  0  0  0  0  0
    0.9895   -3.6365    0.0000 F   0  0  0  0  0  0  0  0  0  0  0  0
    0.2775   -2.4032    0.0000 F   0  0  0  0  0  0  0  0  0  0  0  0
    0.9895   -1.9922    0.0000 F   0  0  0  0  0  0  0  0  0  0  0  0
  1  2  1  0      
  2  3  1  0      
  1  4  2  0      
  1  5  1  0      
  6  7  1  0      
  9 10  1  0      
 11 12  1  0      
 12 13  1  0      
 13 14  1  0      
 14 15  1  0      
 15 16  1  0      
 11 16  1  0      
 17 18  1  0      
 18 19  2  0      
 19 20  1  0      
 16 20  2  0      
 15 17  2  0      
 13 21  2  0      
 17 22  1  0      
 10 20  1  0      
  8  9  1  0      
  7  8  1  0      
  5  6  1  0      
 24 25  1  0      
 26 27  1  0      
 27 28  2  0      
 28 29  1  0      
 29 30  2  0      
 30 31  1  0      
 26 31  2  0      
 29 32  1  0      
 28 33  1  0      
 25 26  1  0      
 23 24  1  0      
  3 23  1  0      
 34 35  1  0      
 35 36  1  0      
 36 37  1  0      
 37 38  1  0      
 38 39  1  0      
 34 39  1  0      
  5 34  1  0      
 40 41  1  0      
 41 42  2  0      
 41 43  1  0      
 40 44  1  0      
 40 45  1  0      
 40 46  1  0      
 47 48  1  0      
 48 49  2  0      
 48 50  1  0      
 47 51  1  0      
 47 52  1  0      
 47 53  1  0      
M  END

>  <RackCode>
HYCPK72335

>  <Cat. No.>
HY-15226A

>  <Product Name>
AZ505 (ditrifluoroacetate)

>  <ROW>
D

>  <COLUMN>
11

>  <CAS No.>
1035227-44-1

>  <MWt>
805.59

>  <Target>
Histone Methyltransferase

>  <Saltdate>
Trifluoroacetate

>  <Smiles>
O=C(N(C1CCCCC1)CCNCCC2=C(OCC(N3)=O)C3=C(O)C=C2)CCNCCC4=CC=C(Cl)C(Cl)=C4.O=C(O)C(F)(F)F.O=C(O)C(F)(F)F

>  <Solvent>
DMSO Solution

>  <Batch No.>
37402

>  <Quantity>
10mM  * 50uL

>  <Pathway>
Epigenetics

>  <Synonyms>


>  <Formula>
C33H40Cl2F6N4O8

>  <Research_Area>
Cancer

>  <Clinical_Information>
No Development Reported

>  <SUPPLIER>
MedChemExpress

$$$$
Untitled Document
  ChemDraw05251710532D

 22 22  0  0  0  0  0  0  0  0999 V2000
    3.2151   -0.8250    0.0000 C   0  0  0  0  0  0  0  0  0  0  0  0
    3.2151    0.8250    0.0000 C   0  0  0  0  0  0  0  0  0  0  0  0
    2.5006   -0.4125    0.0000 C   0  0  0  0  0  0  0  0  0  0  0  0
    2.5006    0.4125    0.0000 C   0  0  0  0  0  0  0  0  0  0  0  0
    1.7862   -0.8250    0.0000 C   0  0  0  0  0  0  0  0  0  0  0  0
    1.7862    0.8250    0.0000 C   0  0  0  0  0  0  0  0  0  0  0  0
   -3.2151   -0.4125    0.0000 C   0  0  0  0  0  0  0  0  0  0  0  0
   -3.2151    0.4125    0.0000 C   0  0  0  0  0  0  0  0  0  0  0  0
    1.0717   -0.4125    0.0000 C   0  0  0  0  0  0  0  0  0  0  0  0
    1.0717    0.4125    0.0000 C   0  0  0  0  0  0  0  0  0  0  0  0
   -2.5006   -0.8250    0.0000 C   0  0  0  0  0  0  0  0  0  0  0  0
   -2.5006    0.8250    0.0000 C   0  0  0  0  0  0  0  0  0  0  0  0
    0.3572   -0.8250    0.0000 C   0  0  0  0  0  0  0  0  0  0  0  0
    0.3572    0.8250    0.0000 C   0  0  0  0  0  0  0  0  0  0  0  0
   -1.7862   -0.4125    0.0000 C   0  0  0  0  0  0  0  0  0  0  0  0
   -1.7862    0.4125    0.0000 C   0  0  0  0  0  0  0  0  0  0  0  0
   -1.0717   -0.8250    0.0000 C   0  0  0  0  0  0  0  0  0  0  0  0
   -1.0717    0.8250    0.0000 C   0  0  0  0  0  0  0  0  0  0  0  0
   -1.0717   -1.6500    0.0000 O   0  0  0  0  0  0  0  0  0  0  0  0
   -1.0717    1.6500    0.0000 O   0  0  0  0  0  0  0  0  0  0  0  0
   -0.3572   -0.4125    0.0000 O   0  0  0  0  0  0  0  0  0  0  0  0
   -0.3572    0.4125    0.0000 O   0  0  0  0  0  0  0  0  0  0  0  0
  3  1  1  0      
  4  2  1  0      
  5  3  1  0      
  6  4  1  0      
  8  7  2  0      
  9  5  1  0      
 10  6  1  0      
 11  7  1  0      
 12  8  1  0      
 13  9  1  0      
 14 10  1  0      
 15 11  2  0      
 16 12  2  0      
 16 15  1  0      
 17 15  1  0      
 18 16  1  0      
 19 17  2  0      
 20 18  2  0      
 21 13  1  0      
 21 17  1  0      
 22 14  1  0      
 22 18  1  0      
M  END

>  <RackCode>
HYCPK72335

>  <Cat. No.>
HY-W013816

>  <Product Name>
Dipentyl phthalate

>  <ROW>
E

>  <COLUMN>
11

>  <CAS No.>
131-18-0

>  <MWt>
306.40

>  <Target>
Akt; AMPK

>  <Saltdate>


>  <Smiles>
O=C(OCCCCC)C1=CC=CC=C1C(OCCCCC)=O

>  <Solvent>
DMSO Solution

>  <Batch No.>
320307

>  <Quantity>
10mM  * 50uL

>  <Pathway>
Epigenetics; PI3K/Akt/mTOR

>  <Synonyms>


>  <Formula>
C18H26O4

>  <Research_Area>
Metabolic Disease

>  <Clinical_Information>
No Development Reported

>  <SUPPLIER>
MedChemExpress

$$$$
Untitled Document
  ChemDraw04222010112D

 20 20  0  0  0  0  0  0  0  0999 V2000
   -0.3613   -0.2280    0.0000 C   0  0  0  0  0  0  0  0  0  0  0  0
   -0.3781   -1.0528    0.0000 C   0  0  0  0  0  0  0  0  0  0  0  0
   -1.1008   -1.4507    0.0000 C   0  0  0  0  0  0  0  0  0  0  0  0
   -1.8067   -1.0238    0.0000 C   0  0  0  0  0  0  0  0  0  0  0  0
   -1.7900   -0.1990    0.0000 C   0  0  0  0  0  0  0  0  0  0  0  0
   -2.4959    0.2280    0.0000 C   0  0  0  0  0  0  0  0  0  0  0  0
   -2.4792    1.0528    0.0000 C   0  0  0  0  0  0  0  0  0  0  0  0
   -1.7565    1.4507    0.0000 C   0  0  0  0  0  0  0  0  0  0  0  0
   -1.0506    1.0238    0.0000 C   0  0  0  0  0  0  0  0  0  0  0  0
   -1.0673    0.1990    0.0000 C   0  0  0  0  0  0  0  0  0  0  0  0
    0.3613    0.1700    0.0000 S   0  0  0  0  0  0  0  0  0  0  0  0
    0.7593   -0.5527    0.0000 O   0  0  0  0  0  0  0  0  0  0  0  0
   -0.0366    0.8927    0.0000 O   0  0  0  0  0  0  0  0  0  0  0  0
    1.0840    0.5679    0.0000 N   0  0  0  0  0  0  0  0  0  0  0  0
   -3.2186   -0.1700    0.0000 Cl  0  0  0  0  0  0  0  0  0  0  0  0
    1.7900    0.1410    0.0000 C   0  0  0  0  0  0  0  0  0  0  0  0
    2.5127    0.5389    0.0000 C   0  0  0  0  0  0  0  0  0  0  0  0
    3.2186    0.1120    0.0000 N   0  0  0  0  0  0  0  0  0  0  0  0
    1.9114   -1.3642    0.0000 H   0  0  0  0  0  0  0  0  0  0  0  0
    2.7335   -1.3642    0.0000 Cl  0  0  0  0  0  0  0  0  0  0  0  0
  1  2  1  0      
  2  3  2  0      
  3  4  1  0      
  4  5  2  0      
  5  6  1  0      
  6  7  2  0      
  7  8  1  0      
  8  9  2  0      
  9 10  1  0      
  1 10  2  0      
  5 10  1  0      
 11 12  2  0      
 11 13  2  0      
 11 14  1  0      
  1 11  1  0      
  6 15  1  0      
 16 17  1  0      
 17 18  1  0      
 14 16  1  0      
 19 20  1  0      
M  END

>  <RackCode>
HYCPK72335

>  <Cat. No.>
HY-125957

>  <Product Name>
A-3 (hydrochloride)

>  <ROW>
F

>  <COLUMN>
11

>  <CAS No.>
78957-85-4

>  <MWt>
321.22

>  <Target>
CaMK; Casein Kinase; PKA; PKC

>  <Saltdate>
Hydrochloride

>  <Smiles>
O=S(C1=C2C=CC=C(Cl)C2=CC=C1)(NCCN)=O.[H]Cl

>  <Solvent>
DMSO Solution

>  <Batch No.>
68191

>  <Quantity>
10mM  * 50uL

>  <Pathway>
Cell Cycle/DNA Damage; Epigenetics; Neuronal Signaling; Stem Cell/Wnt; TGF-beta/Smad

>  <Synonyms>


>  <Formula>
C12H14Cl2N2O2S

>  <Research_Area>
Others

>  <Clinical_Information>
No Development Reported

>  <SUPPLIER>
MedChemExpress

$$$$
Untitled Document
  ChemDraw07271712502D

 27 29  0  0  0  0  0  0  0  0999 V2000
    2.1434   -0.2062    0.0000 C   0  0  0  0  0  0  0  0  0  0  0  0
    1.4289   -0.6187    0.0000 C   0  0  0  0  0  0  0  0  0  0  0  0
    0.7145   -0.2062    0.0000 C   0  0  0  0  0  0  0  0  0  0  0  0
    0.7145    0.6187    0.0000 C   0  0  0  0  0  0  0  0  0  0  0  0
    1.4289    1.0313    0.0000 C   0  0  0  0  0  0  0  0  0  0  0  0
    2.1434    0.6187    0.0000 C   0  0  0  0  0  0  0  0  0  0  0  0
    2.8579   -0.6187    0.0000 C   0  0  0  0  0  0  0  0  0  0  0  0
    3.5724   -0.2062    0.0000 C   0  0  0  0  0  0  0  0  0  0  0  0
    4.2868   -0.6187    0.0000 C   0  0  0  0  0  0  0  0  0  0  0  0
    4.2868   -1.4438    0.0000 C   0  0  0  0  0  0  0  0  0  0  0  0
    3.5724   -1.8563    0.0000 C   0  0  0  0  0  0  0  0  0  0  0  0
    2.8579   -1.4438    0.0000 C   0  0  0  0  0  0  0  0  0  0  0  0
    0.0000   -0.6187    0.0000 C   0  0  0  0  0  0  0  0  0  0  0  0
    0.0000   -1.4438    0.0000 O   0  0  0  0  0  0  0  0  0  0  0  0
   -0.7145   -0.2062    0.0000 N   0  0  0  0  0  0  0  0  0  0  0  0
   -1.4289   -0.6187    0.0000 N   0  0  0  0  0  0  0  0  0  0  0  0
   -2.1434   -0.2062    0.0000 S   0  0  0  0  0  0  0  0  0  0  0  0
   -1.7309    0.5082    0.0000 O   0  0  0  0  0  0  0  0  0  0  0  0
   -2.5559   -0.9207    0.0000 O   0  0  0  0  0  0  0  0  0  0  0  0
   -2.8579    0.2062    0.0000 C   0  0  0  0  0  0  0  0  0  0  0  0
   -3.5724   -0.2062    0.0000 C   0  0  0  0  0  0  0  0  0  0  0  0
   -4.2868    0.2062    0.0000 C   0  0  0  0  0  0  0  0  0  0  0  0
   -4.2868    1.0313    0.0000 C   0  0  0  0  0  0  0  0  0  0  0  0
   -3.5724    1.4438    0.0000 C   0  0  0  0  0  0  0  0  0  0  0  0
   -2.8579    1.0313    0.0000 C   0  0  0  0  0  0  0  0  0  0  0  0
    1.4289    1.8563    0.0000 C   0  0  0  0  0  0  0  0  0  0  0  0
    0.0000    1.0313    0.0000 F   0  0  0  0  0  0  0  0  0  0  0  0
  1  2  1  0      
  2  3  2  0      
  3  4  1  0      
  4  5  2  0      
  5  6  1  0      
  1  6  2  0      
  7  8  1  0      
  8  9  2  0      
  9 10  1  0      
 10 11  2  0      
 11 12  1  0      
  7 12  2  0      
  1  7  1  0      
 13 14  2  0      
 15 16  1  0      
 17 18  2  0      
 17 19  2  0      
 20 21  1  0      
 21 22  2  0      
 22 23  1  0      
 23 24  2  0      
 24 25  1  0      
 20 25  2  0      
 17 20  1  0      
 16 17  1  0      
 13 15  1  0      
  3 13  1  0      
  5 26  1  0      
  4 27  1  0      
M  END

>  <RackCode>
HYCPK72335

>  <Cat. No.>
HY-102060

>  <Product Name>
WM-8014

>  <ROW>
G

>  <COLUMN>
11

>  <CAS No.>
2055397-18-5

>  <MWt>
384.42

>  <Target>
Histone Acetyltransferase

>  <Saltdate>
Free Base

>  <Smiles>
O=C(C1=CC(C2=CC=CC=C2)=CC(C)=C1F)NNS(=O)(C3=CC=CC=C3)=O

>  <Solvent>
DMSO Solution

>  <Batch No.>
29367

>  <Quantity>
10mM  * 50uL

>  <Pathway>
Epigenetics

>  <Synonyms>


>  <Formula>
C20H17FN2O3S

>  <Research_Area>
Cancer

>  <Clinical_Information>
No Development Reported

>  <SUPPLIER>
MedChemExpress

$$$$
Untitled Document
  ChemDraw11242214062D

 24 28  0  0  0  0  0  0  0  0999 V2000
   -3.2994    0.3551    0.0000 O   0  0  0  0  0  0  0  0  0  0  0  0
   -2.8875    1.0699    0.0000 C   0  0  0  0  0  0  0  0  0  0  0  0
   -3.3006    1.7841    0.0000 N   0  0  0  0  0  0  0  0  0  0  0  0
   -2.0625    1.0706    0.0000 C   0  0  0  0  0  0  0  0  0  0  0  0
   -1.6506    1.7854    0.0000 C   0  0  0  0  0  0  0  0  0  0  0  0
   -0.8256    1.7860    0.0000 C   0  0  0  0  0  0  0  0  0  0  0  0
   -0.4125    1.0719    0.0000 C   0  0  0  0  0  0  0  0  0  0  0  0
    0.4125    1.0725    0.0000 N   0  0  0  0  0  0  0  0  0  0  0  0
    0.8256    0.3584    0.0000 C   0  0  0  0  0  0  0  0  0  0  0  0
    1.6506    0.3590    0.0000 C   0  0  0  0  0  0  0  0  0  0  0  0
    2.0625    1.0738    0.0000 C   0  0  0  0  0  0  0  0  0  0  0  0
    2.8875    1.0745    0.0000 C   0  0  0  0  0  0  0  0  0  0  0  0
    3.3006    0.3603    0.0000 C   0  0  0  0  0  0  0  0  0  0  0  0
    2.8886   -0.3545    0.0000 C   0  0  0  0  0  0  0  0  0  0  0  0
    2.0636   -0.3551    0.0000 C   0  0  0  0  0  0  0  0  0  0  0  0
    0.4136   -0.3564    0.0000 C   0  0  0  0  0  0  0  0  0  0  0  0
   -0.4114   -0.3571    0.0000 C   0  0  0  0  0  0  0  0  0  0  0  0
   -0.8244    0.3571    0.0000 C   0  0  0  0  0  0  0  0  0  0  0  0
   -1.6494    0.3564    0.0000 C   0  0  0  0  0  0  0  0  0  0  0  0
   -0.8233   -1.0719    0.0000 C   0  0  0  0  0  0  0  0  0  0  0  0
   -0.4103   -1.7860    0.0000 C   0  0  0  0  0  0  0  0  0  0  0  0
    0.4147   -1.7854    0.0000 C   0  0  0  0  0  0  0  0  0  0  0  0
    0.8267   -1.0706    0.0000 C   0  0  0  0  0  0  0  0  0  0  0  0
    0.0019   -1.4077    0.0000 C   0  0  0  0  0  0  0  0  0  0  0  0
  1  2  2  0      
  2  3  1  0      
  2  4  1  0      
  4  5  2  0      
  5  6  1  0      
  6  7  2  0      
  7  8  1  0      
  8  9  1  0      
  9 10  1  0      
 10 11  1  0      
 11 12  2  0      
 12 13  1  0      
 13 14  2  0      
 14 15  1  0      
 10 15  2  0      
  9 16  1  0      
 16 17  1  0      
 17 18  1  0      
  7 18  1  0      
 18 19  2  0      
  4 19  1  0      
 17 20  1  0      
 20 21  1  0      
 21 22  1  0      
 22 23  1  0      
 16 23  1  0      
 23 24  1  0      
 20 24  1  0      
M  END

>  <RackCode>
HYCPK72335

>  <Cat. No.>
HY-148408

>  <Product Name>
SIRT2-IN-11

>  <ROW>
H

>  <COLUMN>
11

>  <CAS No.>
1005095-06-6

>  <MWt>
318.41

>  <Target>
Sirtuin

>  <Saltdate>


>  <Smiles>
O=C(C1=CC=C2NC(C3C(C4CCC3C4)C2=C1)C5=CC=CC=C5)N

>  <Solvent>
DMSO Solution

>  <Batch No.>
286438

>  <Quantity>
10mM  * 50uL

>  <Pathway>
Cell Cycle/DNA Damage; Epigenetics

>  <Synonyms>


>  <Formula>
C21H22N2O

>  <Research_Area>
Cancer

>  <Clinical_Information>
No Development Reported

>  <SUPPLIER>
MedChemExpress

$$$$
Untitled Document
  ChemDraw02032309422D

 35 38  0  0  0  0  0  0  0  0999 V2000
    2.5007   -0.2062    0.0000 N   0  0  0  0  0  0  0  0  0  0  0  0
    3.2152    0.2062    0.0000 C   0  0  0  0  0  0  0  0  0  0  0  0
    3.9297   -0.2062    0.0000 C   0  0  0  0  0  0  0  0  0  0  0  0
    3.9297   -1.0313    0.0000 C   0  0  0  0  0  0  0  0  0  0  0  0
    4.6442   -1.4437    0.0000 C   0  0  0  0  0  0  0  0  0  0  0  0
    4.6442   -2.2688    0.0000 F   0  0  0  0  0  0  0  0  0  0  0  0
    5.3587   -1.0313    0.0000 C   0  0  0  0  0  0  0  0  0  0  0  0
    5.3587   -0.2062    0.0000 C   0  0  0  0  0  0  0  0  0  0  0  0
    6.0732    0.2062    0.0000 F   0  0  0  0  0  0  0  0  0  0  0  0
    4.6442    0.2062    0.0000 C   0  0  0  0  0  0  0  0  0  0  0  0
    1.7863    0.2062    0.0000 C   0  0  0  0  0  0  0  0  0  0  0  0
    1.7863    1.0313    0.0000 C   0  0  0  0  0  0  0  0  0  0  0  0
    2.5007    1.4437    0.0000 C   0  0  0  0  0  0  0  0  0  0  0  0
    3.2152    1.0313    0.0000 N   0  0  0  0  0  0  0  0  0  0  0  0
    2.5007    2.2688    0.0000 O   0  0  0  0  0  0  0  0  0  0  0  0
    1.0717    1.4437    0.0000 C   0  0  0  0  0  0  0  0  0  0  0  0
    0.3572    1.0313    0.0000 N   0  0  0  0  0  0  0  0  0  0  0  0
    0.3572    0.2062    0.0000 C   0  0  0  0  0  0  0  0  0  0  0  0
   -0.3572   -0.2062    0.0000 N   0  0  0  0  0  0  0  0  0  0  0  0
   -1.0717    0.2062    0.0000 C   0  0  0  0  0  0  0  0  0  0  0  0
   -1.7863   -0.2062    0.0000 C   0  0  0  0  0  0  0  0  0  0  0  0
   -2.5007    0.2062    0.0000 C   0  0  0  0  0  0  0  0  0  0  0  0
   -3.2152   -0.2062    0.0000 N   0  0  0  0  0  0  0  0  0  0  0  0
   -3.9297    0.2062    0.0000 C   0  0  0  0  0  0  0  0  0  0  0  0
   -3.9297    1.0313    0.0000 O   0  0  0  0  0  0  0  0  0  0  0  0
   -4.6442   -0.2062    0.0000 C   0  0  0  0  0  0  0  0  0  0  0  0
   -4.6442   -1.0313    0.0000 C   0  0  0  0  0  0  0  0  0  0  0  0
   -5.3587   -1.4437    0.0000 C   0  0  0  0  0  0  0  0  0  0  0  0
   -6.0732   -1.0313    0.0000 C   0  0  0  0  0  0  0  0  0  0  0  0
   -6.0732   -0.2062    0.0000 N   0  0  0  0  0  0  0  0  0  0  0  0
   -5.3587    0.2062    0.0000 C   0  0  0  0  0  0  0  0  0  0  0  0
   -2.5007    1.0313    0.0000 C   0  0  0  0  0  0  0  0  0  0  0  0
   -1.7863    1.4437    0.0000 C   0  0  0  0  0  0  0  0  0  0  0  0
   -1.0717    1.0313    0.0000 C   0  0  0  0  0  0  0  0  0  0  0  0
    1.0717   -0.2062    0.0000 C   0  0  0  0  0  0  0  0  0  0  0  0
  1  2  1  0      
  2  3  1  0      
  3  4  2  0      
  4  5  1  0      
  5  6  1  0      
  5  7  2  0      
  7  8  1  0      
  8  9  1  0      
  8 10  2  0      
  3 10  1  0      
  1 11  1  0      
 11 12  1  0      
 12 13  1  0      
 13 14  1  0      
 13 15  2  0      
 12 16  2  0      
 16 17  1  0      
 17 18  2  0      
 18 19  1  0      
 19 20  1  0      
 20 21  2  0      
 21 22  1  0      
 22 23  1  0      
 23 24  1  0      
 24 25  2  0      
 26 24  1  1      
 26 27  1  0      
 27 28  1  0      
 28 29  1  0      
 29 30  1  0      
 30 31  1  0      
 26 31  1  0      
 22 32  2  0      
 32 33  1  0      
 33 34  2  0      
 20 34  1  0      
 18 35  1  0      
 11 35  2  0      
M  END

>  <RackCode>
HYCPK72335

>  <Cat. No.>
HY-148785

>  <Product Name>
Nimucitinib

>  <ROW>
I

>  <COLUMN>
11

>  <CAS No.>
2740557-24-6

>  <MWt>
480.51

>  <Target>
JAK

>  <Saltdate>


>  <Smiles>
FC1=CC(F)=CC(CNC2=CC(NC3=CC(NC([C@H]4CCCNC4)=O)=CC=C3)=NC=C2C(N)=O)=C1

>  <Solvent>
DMSO Solution

>  <Batch No.>
323655

>  <Quantity>
10mM  * 50uL

>  <Pathway>
Epigenetics; JAK/STAT Signaling; Protein Tyrosine Kinase/RTK; Stem Cell/Wnt

>  <Synonyms>


>  <Formula>
C25H26F2N6O2

>  <Research_Area>
Others

>  <Clinical_Information>
No Development Reported

>  <SUPPLIER>
MedChemExpress

$$$$
Untitled Document
  ChemDraw10081918122D

 35 39  0  0  0  0  0  0  0  0999 V2000
   -1.3260   -1.2207    0.0000 Cl  0  0  0  0  0  0  0  0  0  0  0  0
    0.3572    3.1900    0.0000 O   0  0  0  0  0  0  0  0  0  0  0  0
    0.3572    2.3650    0.0000 C   0  0  0  0  0  0  0  0  0  0  0  0
    1.0717    1.9525    0.0000 N   0  0  0  0  0  0  0  0  0  0  0  0
    1.7862    2.3650    0.0000 C   0  0  0  0  0  0  0  0  0  0  0  0
    2.5006    1.9525    0.0000 C   0  0  0  0  0  0  0  0  0  0  0  0
    2.5006    1.1275    0.0000 C   0  0  0  0  0  0  0  0  0  0  0  0
    1.8332    0.6426    0.0000 C   0  0  0  0  0  0  0  0  0  0  0  0
    2.0881   -0.1420    0.0000 N   0  0  0  0  0  0  0  0  0  0  0  0
    1.8332   -0.9267    0.0000 C   0  0  0  0  0  0  0  0  0  0  0  0
    1.0486   -1.1816    0.0000 C   0  0  0  0  0  0  0  0  0  0  0  0
    0.8771   -1.9886    0.0000 N   0  0  0  0  0  0  0  0  0  0  0  0
    0.0924   -2.2435    0.0000 C   0  0  0  0  0  0  0  0  0  0  0  0
   -0.0791   -3.0505    0.0000 C   0  0  0  0  0  0  0  0  0  0  0  0
    0.5340   -3.6025    0.0000 N   0  0  0  0  0  0  0  0  0  0  0  0
    1.3186   -3.3476    0.0000 C   0  0  0  0  0  0  0  0  0  0  0  0
    1.4902   -2.5406    0.0000 C   0  0  0  0  0  0  0  0  0  0  0  0
    2.5006   -1.4116    0.0000 C   0  0  0  0  0  0  0  0  0  0  0  0
    3.1681   -0.9267    0.0000 S   0  0  0  0  0  0  0  0  0  0  0  0
    2.9131   -0.1420    0.0000 C   0  0  0  0  0  0  0  0  0  0  0  0
    3.1681    0.6426    0.0000 N   0  0  0  0  0  0  0  0  0  0  0  0
    3.2151    2.3650    0.0000 C   0  0  0  0  0  0  0  0  0  0  0  0
    3.2151    3.1900    0.0000 C   0  0  0  0  0  0  0  0  0  0  0  0
    2.5006    3.6025    0.0000 C   0  0  0  0  0  0  0  0  0  0  0  0
    1.7862    3.1900    0.0000 C   0  0  0  0  0  0  0  0  0  0  0  0
   -0.3572    1.9525    0.0000 C   0  0  0  0  0  0  0  0  0  0  0  0
   -1.0717    2.3650    0.0000 N   0  0  0  0  0  0  0  0  0  0  0  0
   -1.7862    1.9525    0.0000 C   0  0  0  0  0  0  0  0  0  0  0  0
   -2.5006    2.3650    0.0000 C   0  0  0  0  0  0  0  0  0  0  0  0
   -3.2151    1.9525    0.0000 C   0  0  0  0  0  0  0  0  0  0  0  0
   -3.2151    1.1275    0.0000 C   0  0  0  0  0  0  0  0  0  0  0  0
   -2.5006    0.7150    0.0000 C   0  0  0  0  0  0  0  0  0  0  0  0
   -1.7862    1.1275    0.0000 C   0  0  0  0  0  0  0  0  0  0  0  0
   -1.0717    0.7150    0.0000 N   0  0  0  0  0  0  0  0  0  0  0  0
   -0.3572    1.1275    0.0000 C   0  0  0  0  0  0  0  0  0  0  0  0
  2  3  2  0      
  3  4  1  0      
  4  5  1  0      
  5  6  2  0      
  6  7  1  0      
  7  8  2  0      
  8  9  1  0      
  9 10  1  0      
 10 11  1  0      
 11 12  1  0      
 12 13  1  0      
 13 14  1  0      
 14 15  1  0      
 15 16  1  0      
 16 17  1  0      
 12 17  1  0      
 10 18  2  0      
 18 19  1  0      
  9 20  1  0      
 19 20  1  0      
 20 21  2  0      
  7 21  1  0      
  6 22  1  0      
 22 23  2  0      
 23 24  1  0      
 24 25  2  0      
  5 25  1  0      
  3 26  1  0      
 26 27  2  0      
 27 28  1  0      
 28 29  2  0      
 29 30  1  0      
 30 31  2  0      
 31 32  1  0      
 32 33  2  0      
 28 33  1  0      
 33 34  1  0      
 34 35  2  0      
 26 35  1  0      
M  END

>  <RackCode>
HYCPK72335

>  <Cat. No.>
HY-15145

>  <Product Name>
SRT 1720 (monohydrochloride)

>  <ROW>
J

>  <COLUMN>
11

>  <CAS No.>
2060259-60-9

>  <MWt>
506.02

>  <Target>
Autophagy; Sirtuin

>  <Saltdate>
Hydrochloride

>  <Smiles>
O=C(C1=NC2=CC=CC=C2N=C1)NC3=C(C=CC=C3)C4=CN5C(CN6CCNCC6)=CSC5=N4.Cl

>  <Solvent>
DMSO Solution

>  <Batch No.>
252593

>  <Quantity>
10mM  * 50uL

>  <Pathway>
Autophagy; Cell Cycle/DNA Damage; Epigenetics

>  <Synonyms>


>  <Formula>
C25H24ClN7OS

>  <Research_Area>
Metabolic Disease

>  <Clinical_Information>
No Development Reported

>  <SUPPLIER>
MedChemExpress

$$$$
Untitled Document
  ChemDraw07022009092D

 31 34  0  0  0  0  0  0  0  0999 V2000
   -1.7245   -0.4125    0.0000 N   0  0  0  0  0  0  0  0  0  0  0  0
   -1.0101    0.0000    0.0000 C   0  0  0  0  0  0  0  0  0  0  0  0
   -1.0101    0.8250    0.0000 N   0  0  0  0  0  0  0  0  0  0  0  0
   -1.7245    1.2375    0.0000 C   0  0  0  0  0  0  0  0  0  0  0  0
   -2.4389    0.8250    0.0000 C   0  0  0  0  0  0  0  0  0  0  0  0
   -3.1534    1.2375    0.0000 C   0  0  0  0  0  0  0  0  0  0  0  0
   -3.8679    0.8250    0.0000 C   0  0  0  0  0  0  0  0  0  0  0  0
   -3.8679    0.0000    0.0000 C   0  0  0  0  0  0  0  0  0  0  0  0
   -3.1534   -0.4125    0.0000 C   0  0  0  0  0  0  0  0  0  0  0  0
   -2.4389    0.0000    0.0000 C   0  0  0  0  0  0  0  0  0  0  0  0
   -1.7245    2.0624    0.0000 O   0  0  0  0  0  0  0  0  0  0  0  0
   -4.5823   -0.4125    0.0000 O   0  0  0  0  0  0  0  0  0  0  0  0
   -5.2967    0.0000    0.0000 C   0  0  0  0  0  0  0  0  0  0  0  0
   -3.1534    2.0624    0.0000 O   0  0  0  0  0  0  0  0  0  0  0  0
   -3.8679    2.4749    0.0000 C   0  0  0  0  0  0  0  0  0  0  0  0
   -0.2956   -0.4125    0.0000 C   0  0  0  0  0  0  0  0  0  0  0  0
   -0.2956   -1.2375    0.0000 C   0  0  0  0  0  0  0  0  0  0  0  0
    0.4189   -1.6500    0.0000 C   0  0  0  0  0  0  0  0  0  0  0  0
    1.1333   -1.2375    0.0000 C   0  0  0  0  0  0  0  0  0  0  0  0
    1.1333   -0.4125    0.0000 C   0  0  0  0  0  0  0  0  0  0  0  0
    0.4189    0.0000    0.0000 C   0  0  0  0  0  0  0  0  0  0  0  0
    1.8477   -1.6500    0.0000 O   0  0  0  0  0  0  0  0  0  0  0  0
    2.5622   -1.2375    0.0000 C   0  0  0  0  0  0  0  0  0  0  0  0
    3.2766   -1.6500    0.0000 C   0  0  0  0  0  0  0  0  0  0  0  0
    3.9911   -1.2375    0.0000 N   0  0  0  0  0  0  0  0  0  0  0  0
    4.0773   -0.4170    0.0000 C   0  0  0  0  0  0  0  0  0  0  0  0
    4.8843   -0.2455    0.0000 C   0  0  0  0  0  0  0  0  0  0  0  0
    5.2967   -0.9600    0.0000 C   0  0  0  0  0  0  0  0  0  0  0  0
    4.7448   -1.5731    0.0000 C   0  0  0  0  0  0  0  0  0  0  0  0
    1.8477    0.0000    0.0000 C   0  0  0  0  0  0  0  0  0  0  0  0
    0.4189   -2.4749    0.0000 C   0  0  0  0  0  0  0  0  0  0  0  0
  1  2  2  0      
  2  3  1  0      
  3  4  1  0      
  4  5  1  0      
  5  6  1  0      
  6  7  2  0      
  7  8  1  0      
  8  9  2  0      
  9 10  1  0      
  1 10  1  0      
  5 10  2  0      
  4 11  2  0      
 12 13  1  0      
  8 12  1  0      
 14 15  1  0      
  6 14  1  0      
 16 17  1  0      
 17 18  2  0      
 18 19  1  0      
 19 20  2  0      
 20 21  1  0      
 16 21  2  0      
 23 24  1  0      
 22 23  1  0      
 25 26  1  0      
 26 27  1  0      
 27 28  1  0      
 28 29  1  0      
 25 29  1  0      
 24 25  1  0      
 19 22  1  0      
 20 30  1  0      
 18 31  1  0      
  2 16  1  0      
M  END

>  <RackCode>
HYCPK72335

>  <Cat. No.>
HY-114504

>  <Product Name>
RVX-297

>  <ROW>
K

>  <COLUMN>
11

>  <CAS No.>
1044871-04-6

>  <MWt>
423.50

>  <Target>
Epigenetic Reader Domain

>  <Saltdate>


>  <Smiles>
O=C1NC(C2=CC(C)=C(OCCN3CCCC3)C(C)=C2)=NC4=C1C(OC)=CC(OC)=C4

>  <Solvent>
DMSO Solution

>  <Batch No.>
116353

>  <Quantity>
10mM  * 50uL

>  <Pathway>
Epigenetics

>  <Synonyms>


>  <Formula>
C24H29N3O4

>  <Research_Area>
Inflammation/Immunology

>  <Clinical_Information>
No Development Reported

>  <SUPPLIER>
MedChemExpress

$$$$
Untitled Document
  ChemDraw05182314292D

 25 28  0  0  0  0  0  0  0  0999 V2000
    2.1910    0.2146    0.0000 O   0  0  0  0  0  0  0  0  0  0  0  0
    1.9360   -0.5701    0.0000 C   0  0  0  0  0  0  0  0  0  0  0  0
    2.4209   -1.2375    0.0000 O   0  0  0  0  0  0  0  0  0  0  0  0
    1.9360   -1.9049    0.0000 C   0  0  0  0  0  0  0  0  0  0  0  0
    1.1514   -1.6500    0.0000 C   0  0  0  0  0  0  0  0  0  0  0  0
    0.4369   -2.0625    0.0000 N   0  0  0  0  0  0  0  0  0  0  0  0
   -0.2775   -1.6500    0.0000 C   0  0  0  0  0  0  0  0  0  0  0  0
   -0.2775   -0.8250    0.0000 C   0  0  0  0  0  0  0  0  0  0  0  0
   -0.9920   -0.4125    0.0000 C   0  0  0  0  0  0  0  0  0  0  0  0
   -0.9920    0.4125    0.0000 O   0  0  0  0  0  0  0  0  0  0  0  0
   -1.7065   -0.8250    0.0000 N   0  0  0  0  0  0  0  0  0  0  0  0
   -1.7065   -1.6500    0.0000 C   0  0  0  0  0  0  0  0  0  0  0  0
   -2.4209   -2.0625    0.0000 O   0  0  0  0  0  0  0  0  0  0  0  0
   -0.9920   -2.0625    0.0000 N   0  0  0  0  0  0  0  0  0  0  0  0
   -0.9920   -2.8875    0.0000 C   0  0  0  0  0  0  0  0  0  0  0  0
   -2.4209   -0.4125    0.0000 C   0  0  0  0  0  0  0  0  0  0  0  0
    0.4369   -0.4125    0.0000 C   0  0  0  0  0  0  0  0  0  0  0  0
    0.4369    0.4125    0.0000 C   0  0  0  0  0  0  0  0  0  0  0  0
   -0.2775    0.8250    0.0000 C   0  0  0  0  0  0  0  0  0  0  0  0
   -0.2775    1.6500    0.0000 C   0  0  0  0  0  0  0  0  0  0  0  0
    0.4369    2.0625    0.0000 C   0  0  0  0  0  0  0  0  0  0  0  0
    1.1514    1.6500    0.0000 C   0  0  0  0  0  0  0  0  0  0  0  0
    1.1514    0.8250    0.0000 C   0  0  0  0  0  0  0  0  0  0  0  0
    0.4369    2.8875    0.0000 C   0  0  0  0  0  0  0  0  0  0  0  0
    1.1514   -0.8250    0.0000 C   0  0  0  0  0  0  0  0  0  0  0  0
  1  2  2  0      
  2  3  1  0      
  3  4  1  0      
  4  5  1  0      
  5  6  1  0      
  6  7  1  0      
  7  8  2  0      
  8  9  1  0      
  9 10  2  0      
  9 11  1  0      
 11 12  1  0      
 12 13  2  0      
 12 14  1  0      
  7 14  1  0      
 14 15  1  0      
 11 16  1  0      
  8 17  1  0      
 17 18  1  0      
 18 19  2  0      
 19 20  1  0      
 20 21  2  0      
 21 22  1  0      
 22 23  2  0      
 18 23  1  0      
 21 24  1  0      
 17 25  1  0      
  2 25  1  0      
  5 25  2  0      
M  END

>  <RackCode>
HYCPK72335

>  <Cat. No.>
HY-153593

>  <Product Name>
BET bromodomain inhibitor 3

>  <ROW>
L

>  <COLUMN>
11

>  <CAS No.>
854137-39-6

>  <MWt>
339.35

>  <Target>
Epigenetic Reader Domain

>  <Saltdate>


>  <Smiles>
O=C1OCC2=C1C(C3=CC=C(C)C=C3)C(C(N(C)C(N4C)=O)=O)=C4N2

>  <Solvent>
DMSO Solution

>  <Batch No.>
320801

>  <Quantity>
10mM  * 50uL

>  <Pathway>
Epigenetics

>  <Synonyms>


>  <Formula>
C18H17N3O4

>  <Research_Area>
Cancer

>  <Clinical_Information>
No Development Reported

>  <SUPPLIER>
MedChemExpress

$$$$
Untitled Document
  ChemDraw09052414282D

111121  0  0  0  0  0  0  0  0999 V2000
   10.2957    8.7629    0.0000 C   0  0  0  0  0  0  0  0  0  0  0  0
    9.8832    8.0484    0.0000 C   0  0  0  0  0  0  0  0  0  0  0  0
   10.2188    7.2948    0.0000 C   0  0  0  0  0  0  0  0  0  0  0  0
   11.0257    7.1232    0.0000 C   0  0  0  0  0  0  0  0  0  0  0  0
    9.6057    6.7427    0.0000 C   0  0  0  0  0  0  0  0  0  0  0  0
    9.7286    5.9269    0.0000 C   0  0  0  0  0  0  0  0  0  0  0  0
   10.5170    5.6838    0.0000 C   0  0  0  0  0  0  0  0  0  0  0  0
   11.1218    6.2449    0.0000 C   0  0  0  0  0  0  0  0  0  0  0  0
   11.9101    6.0017    0.0000 C   0  0  0  0  0  0  0  0  0  0  0  0
   12.0937    5.1974    0.0000 C   0  0  0  0  0  0  0  0  0  0  0  0
   12.8820    4.9543    0.0000 Cl  0  0  0  0  0  0  0  0  0  0  0  0
   11.4889    4.6363    0.0000 C   0  0  0  0  0  0  0  0  0  0  0  0
   10.7006    4.8795    0.0000 C   0  0  0  0  0  0  0  0  0  0  0  0
    9.1675    5.3222    0.0000 N   0  0  0  0  0  0  0  0  0  0  0  0
    8.8912    7.1552    0.0000 C   0  0  0  0  0  0  0  0  0  0  0  0
    9.0627    7.9622    0.0000 S   0  0  0  0  0  0  0  0  0  0  0  0
    8.1232    6.8538    0.0000 N   0  0  0  0  0  0  0  0  0  0  0  0
    7.8801    6.0655    0.0000 C   0  0  0  0  0  0  0  0  0  0  0  0
    8.3448    5.3838    0.0000 C   0  0  0  0  0  0  0  0  0  0  0  0
    7.9323    4.6694    0.0000 C   0  0  0  0  0  0  0  0  0  0  0  0
    7.1073    4.6694    0.0000 C   0  0  0  0  0  0  0  0  0  0  0  0
    6.6948    3.9549    0.0000 N   0  0  0  0  0  0  0  0  0  0  0  0
    5.8698    3.9549    0.0000 C   0  0  0  0  0  0  0  0  0  0  0  0
    5.4573    3.2404    0.0000 C   0  0  0  0  0  0  0  0  0  0  0  0
    4.6323    3.2404    0.0000 O   0  0  0  0  0  0  0  0  0  0  0  0
    4.2198    2.5259    0.0000 C   0  0  0  0  0  0  0  0  0  0  0  0
    3.3948    2.5259    0.0000 C   0  0  0  0  0  0  0  0  0  0  0  0
    2.9823    1.8115    0.0000 O   0  0  0  0  0  0  0  0  0  0  0  0
    2.1573    1.8115    0.0000 C   0  0  0  0  0  0  0  0  0  0  0  0
    1.7448    1.0970    0.0000 C   0  0  0  0  0  0  0  0  0  0  0  0
    0.9198    1.0970    0.0000 O   0  0  0  0  0  0  0  0  0  0  0  0
    0.5073    0.3825    0.0000 C   0  0  0  0  0  0  0  0  0  0  0  0
   -0.3177    0.3825    0.0000 C   0  0  0  0  0  0  0  0  0  0  0  0
   -0.7302    1.0970    0.0000 C   0  0  0  0  0  0  0  0  0  0  0  0
   -1.5552    1.0970    0.0000 O   0  0  0  0  0  0  0  0  0  0  0  0
   -1.9677    1.8115    0.0000 C   0  0  0  0  0  0  0  0  0  0  0  0
   -2.7927    1.8115    0.0000 C   0  0  0  0  0  0  0  0  0  0  0  0
   -3.2052    2.5259    0.0000 N   0  0  0  0  0  0  0  0  0  0  0  0
   -4.0302    2.5259    0.0000 C   0  0  0  0  0  0  0  0  0  0  0  0
   -4.4427    1.8115    0.0000 C   0  0  0  0  0  0  0  0  0  0  0  0
   -5.2677    1.8115    0.0000 C   0  0  0  0  0  0  0  0  0  0  0  0
   -4.0302    1.0970    0.0000 C   0  0  0  0  0  0  0  0  0  0  0  0
   -4.8552    1.0970    0.0000 C   0  0  0  0  0  0  0  0  0  0  0  0
   -4.4427    3.2404    0.0000 C   0  0  0  0  0  0  0  0  0  0  0  0
   -5.2677    3.2404    0.0000 N   0  0  0  0  0  0  0  0  0  0  0  0
   -5.7526    3.9079    0.0000 C   0  0  0  0  0  0  0  0  0  0  0  0
   -5.4977    4.6925    0.0000 C   0  0  0  0  0  0  0  0  0  0  0  0
   -4.6907    4.8640    0.0000 N   0  0  0  0  0  0  0  0  0  0  0  0
   -4.4358    5.6486    0.0000 C   0  0  0  0  0  0  0  0  0  0  0  0
   -3.6288    5.8202    0.0000 C   0  0  0  0  0  0  0  0  0  0  0  0
   -3.3739    6.6048    0.0000 C   0  0  0  0  0  0  0  0  0  0  0  0
   -2.5669    6.7763    0.0000 C   0  0  0  0  0  0  0  0  0  0  0  0
   -2.0149    6.1632    0.0000 C   0  0  0  0  0  0  0  0  0  0  0  0
   -1.2079    6.3347    0.0000 C   0  0  0  0  0  0  0  0  0  0  0  0
   -0.5948    5.7827    0.0000 C   0  0  0  0  0  0  0  0  0  0  0  0
   -0.6810    4.9622    0.0000 C   0  0  0  0  0  0  0  0  0  0  0  0
    0.1197    6.1952    0.0000 N   0  0  0  0  0  0  0  0  0  0  0  0
   -0.0518    7.0022    0.0000 C   0  0  0  0  0  0  0  0  0  0  0  0
   -0.8723    7.0884    0.0000 S   0  0  0  0  0  0  0  0  0  0  0  0
   -2.2698    5.3786    0.0000 C   0  0  0  0  0  0  0  0  0  0  0  0
   -3.0768    5.2071    0.0000 C   0  0  0  0  0  0  0  0  0  0  0  0
   -6.0497    5.3056    0.0000 O   0  0  0  0  0  0  0  0  0  0  0  0
   -6.5372    3.6529    0.0000 C   0  0  0  0  0  0  0  0  0  0  0  0
   -6.5372    2.8279    0.0000 C   0  0  0  0  0  0  0  0  0  0  0  0
   -7.2047    2.3430    0.0000 O   0  0  0  0  0  0  0  0  0  0  0  0
   -5.7526    2.5730    0.0000 C   0  0  0  0  0  0  0  0  0  0  0  0
   -4.0302    3.9549    0.0000 O   0  0  0  0  0  0  0  0  0  0  0  0
   -3.2052    1.0970    0.0000 O   0  0  0  0  0  0  0  0  0  0  0  0
    0.0948   -0.3319    0.0000 C   0  0  0  0  0  0  0  0  0  0  0  0
   -0.7302   -0.3319    0.0000 C   0  0  0  0  0  0  0  0  0  0  0  0
   -1.5552   -0.3319    0.0000 O   0  0  0  0  0  0  0  0  0  0  0  0
   -1.9677   -1.0464    0.0000 C   0  0  0  0  0  0  0  0  0  0  0  0
   -2.7927   -1.0464    0.0000 C   0  0  0  0  0  0  0  0  0  0  0  0
   -3.2052   -1.7609    0.0000 O   0  0  0  0  0  0  0  0  0  0  0  0
   -4.0302   -1.7609    0.0000 C   0  0  0  0  0  0  0  0  0  0  0  0
   -4.4427   -2.4754    0.0000 C   0  0  0  0  0  0  0  0  0  0  0  0
   -5.2677   -2.4754    0.0000 O   0  0  0  0  0  0  0  0  0  0  0  0
   -5.6802   -3.1898    0.0000 C   0  0  0  0  0  0  0  0  0  0  0  0
   -6.5052   -3.1898    0.0000 C   0  0  0  0  0  0  0  0  0  0  0  0
   -6.9177   -3.9043    0.0000 N   0  0  0  0  0  0  0  0  0  0  0  0
   -7.7427   -3.9043    0.0000 C   0  0  0  0  0  0  0  0  0  0  0  0
   -8.1552   -4.6188    0.0000 C   0  0  0  0  0  0  0  0  0  0  0  0
   -8.9802   -4.6188    0.0000 C   0  0  0  0  0  0  0  0  0  0  0  0
   -9.3382   -5.3621    0.0000 N   0  0  0  0  0  0  0  0  0  0  0  0
  -10.1425   -5.5456    0.0000 C   0  0  0  0  0  0  0  0  0  0  0  0
  -10.3260   -6.3500    0.0000 C   0  0  0  0  0  0  0  0  0  0  0  0
   -9.7213   -6.9111    0.0000 C   0  0  0  0  0  0  0  0  0  0  0  0
   -9.9049   -7.7154    0.0000 C   0  0  0  0  0  0  0  0  0  0  0  0
  -10.6932   -7.9586    0.0000 C   0  0  0  0  0  0  0  0  0  0  0  0
  -10.8768   -8.7629    0.0000 Cl  0  0  0  0  0  0  0  0  0  0  0  0
  -11.2980   -7.3974    0.0000 C   0  0  0  0  0  0  0  0  0  0  0  0
  -11.1144   -6.5931    0.0000 C   0  0  0  0  0  0  0  0  0  0  0  0
  -10.7875   -5.0313    0.0000 C   0  0  0  0  0  0  0  0  0  0  0  0
  -11.5721   -5.2862    0.0000 C   0  0  0  0  0  0  0  0  0  0  0  0
  -11.8270   -6.0708    0.0000 C   0  0  0  0  0  0  0  0  0  0  0  0
  -12.0570   -4.6188    0.0000 C   0  0  0  0  0  0  0  0  0  0  0  0
  -12.8820   -4.6188    0.0000 C   0  0  0  0  0  0  0  0  0  0  0  0
  -11.5721   -3.9513    0.0000 S   0  0  0  0  0  0  0  0  0  0  0  0
  -10.7875   -4.2063    0.0000 C   0  0  0  0  0  0  0  0  0  0  0  0
  -10.1425   -3.6919    0.0000 N   0  0  0  0  0  0  0  0  0  0  0  0
   -9.3382   -3.8755    0.0000 C   0  0  0  0  0  0  0  0  0  0  0  0
   -8.9150   -3.1672    0.0000 N   0  0  0  0  0  0  0  0  0  0  0  0
   -9.4578   -2.5460    0.0000 N   0  0  0  0  0  0  0  0  0  0  0  0
  -10.2164   -2.8702    0.0000 C   0  0  0  0  0  0  0  0  0  0  0  0
  -10.9309   -2.4577    0.0000 C   0  0  0  0  0  0  0  0  0  0  0  0
   -8.1552   -3.1898    0.0000 O   0  0  0  0  0  0  0  0  0  0  0  0
    6.6948    5.3838    0.0000 O   0  0  0  0  0  0  0  0  0  0  0  0
    7.0552    6.0531    0.0000 N   0  0  0  0  0  0  0  0  0  0  0  0
    6.7885    6.8339    0.0000 N   0  0  0  0  0  0  0  0  0  0  0  0
    7.4486    7.3287    0.0000 C   0  0  0  0  0  0  0  0  0  0  0  0
    7.4486    8.1537    0.0000 C   0  0  0  0  0  0  0  0  0  0  0  0
  1  2  1  0      
  2  3  2  0      
  3  4  1  0      
  3  5  1  0      
  5  6  1  0      
  6  7  1  0      
  7  8  2  0      
  8  9  1  0      
  9 10  2  0      
 10 11  1  0      
 10 12  1  0      
 12 13  2  0      
  7 13  1  0      
  6 14  2  0      
  5 15  2  0      
 15 16  1  0      
  2 16  1  0      
 15 17  1  0      
 17 18  1  0      
 18 19  1  0      
 14 19  1  0      
 19 20  1  1      
 20 21  1  0      
 21 22  1  0      
 22 23  1  0      
 23 24  1  0      
 24 25  1  0      
 25 26  1  0      
 26 27  1  0      
 27 28  1  0      
 28 29  1  0      
 29 30  1  0      
 30 31  1  0      
 31 32  1  0      
 32 33  1  0      
 33 34  1  0      
 34 35  1  0      
 35 36  1  0      
 36 37  1  0      
 37 38  1  0      
 39 38  1  1      
 39 40  1  0      
 40 41  1  0      
 40 42  1  0      
 40 43  1  0      
 39 44  1  0      
 44 45  1  0      
 45 46  1  0      
 46 47  1  1      
 47 48  1  0      
 48 49  1  0      
 49 50  1  0      
 50 51  2  0      
 51 52  1  0      
 52 53  2  0      
 53 54  1  0      
 54 55  2  0      
 55 56  1  0      
 55 57  1  0      
 57 58  2  0      
 58 59  1  0      
 54 59  1  0      
 53 60  1  0      
 60 61  2  0      
 50 61  1  0      
 47 62  2  0      
 46 63  1  0      
 63 64  1  0      
 64 65  1  6      
 64 66  1  0      
 45 66  1  0      
 44 67  2  0      
 37 68  2  0      
 33 69  1  0      
 33 70  1  0      
 70 71  1  0      
 71 72  1  0      
 72 73  1  0      
 73 74  1  0      
 74 75  1  0      
 75 76  1  0      
 76 77  1  0      
 77 78  1  0      
 78 79  1  0      
 79 80  1  0      
 80 81  1  0      
 81 82  1  0      
 83 82  1  6      
 83 84  1  0      
 84 85  2  0      
 85 86  1  0      
 86 87  2  0      
 87 88  1  0      
 88 89  2  0      
 89 90  1  0      
 89 91  1  0      
 91 92  2  0      
 86 92  1  0      
 85 93  1  0      
 93 94  1  0      
 94 95  1  0      
 94 96  2  0      
 96 97  1  0      
 96 98  1  0      
 93 99  2  0      
 98 99  1  0      
 99100  1  0      
100101  1  0      
 83101  1  0      
101102  2  0      
102103  1  0      
103104  2  0      
100104  1  0      
104105  1  0      
 81106  2  0      
 21107  2  0      
 18108  2  0      
108109  1  0      
109110  2  0      
 17110  1  0      
110111  1  0      
M  END

>  <RackCode>
HYCPK72335

>  <Cat. No.>
HY-141438

>  <Product Name>
SIM1

>  <ROW>
M

>  <COLUMN>
11

>  <CAS No.>
2719051-84-8

>  <MWt>
1618.81

>  <Target>
Epigenetic Reader Domain; PROTACs

>  <Saltdate>
Free Base

>  <Smiles>
CC1=C(C(C(C2=CC=C(C=C2)Cl)=N[C@@H](CC(NCCOCCOCCOCC(C)(COCCOCCOCCNC(C[C@@H]3N=C(C4=C(N5C3=NN=C5C)SC(C)=C4C)C6=CC=C(C=C6)Cl)=O)COCC(N[C@H](C(N7[C@@H](C[C@H](C7)O)C(NCC8=CC=C(C=C8)C9=C(N=CS9)C)=O)=O)C(C)(C)C)=O)=O)C%10=NN=C(C)N%11%10)=C%11S1)C

>  <Solvent>
DMSO Solution

>  <Batch No.>
125511

>  <Quantity>
10mM  * 50uL

>  <Pathway>
Epigenetics; PROTAC

>  <Synonyms>


>  <Formula>
C79H98Cl2N14O13S3

>  <Research_Area>
Cancer

>  <Clinical_Information>
No Development Reported

>  <SUPPLIER>
MedChemExpress

$$$$
Untitled Document
  ChemDraw01171912412D

 33 36  0  0  0  0  0  0  0  0999 V2000
    0.3817    2.8875    0.0000 C   0  0  0  0  0  0  0  0  0  0  0  0
    1.0961    2.4750    0.0000 C   0  0  0  0  0  0  0  0  0  0  0  0
    1.0961    1.6500    0.0000 C   0  0  0  0  0  0  0  0  0  0  0  0
    0.3817    1.2375    0.0000 C   0  0  0  0  0  0  0  0  0  0  0  0
   -0.3328    1.6500    0.0000 C   0  0  0  0  0  0  0  0  0  0  0  0
   -0.3328    2.4750    0.0000 N   0  0  0  0  0  0  0  0  0  0  0  0
    1.8808    2.7299    0.0000 N   0  0  0  0  0  0  0  0  0  0  0  0
    1.8808    1.3951    0.0000 C   0  0  0  0  0  0  0  0  0  0  0  0
    2.3657    2.0625    0.0000 C   0  0  0  0  0  0  0  0  0  0  0  0
    0.3817    3.7125    0.0000 O   0  0  0  0  0  0  0  0  0  0  0  0
    3.1907    2.0625    0.0000 C   0  0  0  0  0  0  0  0  0  0  0  0
    0.3817    0.4125    0.0000 C   0  0  0  0  0  0  0  0  0  0  0  0
    1.0961   -0.0000    0.0000 C   0  0  0  0  0  0  0  0  0  0  0  0
    1.0961   -0.8250    0.0000 C   0  0  0  0  0  0  0  0  0  0  0  0
    0.3817   -1.2375    0.0000 C   0  0  0  0  0  0  0  0  0  0  0  0
   -0.3328   -0.8250    0.0000 C   0  0  0  0  0  0  0  0  0  0  0  0
   -0.3328   -0.0000    0.0000 C   0  0  0  0  0  0  0  0  0  0  0  0
    0.3817   -2.0625    0.0000 C   0  0  0  0  0  0  0  0  0  0  0  0
   -0.3328   -2.4750    0.0000 O   0  0  0  0  0  0  0  0  0  0  0  0
    1.0961   -2.4750    0.0000 N   0  0  0  0  0  0  0  0  0  0  0  0
    1.8106   -2.0625    0.0000 C   0  0  0  0  0  0  0  0  0  0  0  0
    2.5251   -2.4750    0.0000 C   0  0  0  0  0  0  0  0  0  0  0  0
    2.5251   -3.3000    0.0000 O   0  0  0  0  0  0  0  0  0  0  0  0
    1.8106   -3.7125    0.0000 C   0  0  0  0  0  0  0  0  0  0  0  0
    1.0961   -3.3000    0.0000 C   0  0  0  0  0  0  0  0  0  0  0  0
   -1.0473   -1.2375    0.0000 O   0  0  0  0  0  0  0  0  0  0  0  0
   -1.7617   -0.8250    0.0000 C   0  0  0  0  0  0  0  0  0  0  0  0
    1.8106    0.4125    0.0000 O   0  0  0  0  0  0  0  0  0  0  0  0
    2.5251   -0.0000    0.0000 C   0  0  0  0  0  0  0  0  0  0  0  0
   -1.0473    2.8875    0.0000 C   0  0  0  0  0  0  0  0  0  0  0  0
   -1.7617    2.4750    0.0000 C   0  0  0  0  0  0  0  0  0  0  0  0
   -2.4762    2.8875    0.0000 C   0  0  0  0  0  0  0  0  0  0  0  0
   -3.1907    2.4750    0.0000 C   0  0  0  0  0  0  0  0  0  0  0  0
  1  2  1  0      
  2  3  2  0      
  3  4  1  0      
  4  5  2  0      
  5  6  1  0      
  1  6  1  0      
  8  9  2  0      
  7  9  1  0      
  2  7  1  0      
  3  8  1  0      
  1 10  2  0      
  9 11  1  0      
 12 13  1  0      
 13 14  2  0      
 14 15  1  0      
 15 16  2  0      
 16 17  1  0      
 12 17  2  0      
 18 19  2  0      
 20 21  1  0      
 21 22  1  0      
 22 23  1  0      
 23 24  1  0      
 24 25  1  0      
 20 25  1  0      
 18 20  1  0      
 15 18  1  0      
 26 27  1  0      
 16 26  1  0      
 28 29  1  0      
 13 28  1  0      
  4 12  1  0      
 30 31  1  0      
 31 32  2  0      
 32 33  1  0      
  6 30  1  0      
M  END

>  <RackCode>
HYCPK72335

>  <Cat. No.>
HY-123621

>  <Product Name>
GNE-375

>  <ROW>
N

>  <COLUMN>
11

>  <CAS No.>
1926989-06-1

>  <MWt>
451.51

>  <Target>
Epigenetic Reader Domain

>  <Saltdate>


>  <Smiles>
O=C1C(NC(C)=C2)=C2C(C3=CC(OC)=C(C(N4CCOCC4)=O)C=C3OC)=CN1C/C=C/C

>  <Solvent>
DMSO Solution

>  <Batch No.>
189997

>  <Quantity>
10mM  * 50uL

>  <Pathway>
Epigenetics

>  <Synonyms>


>  <Formula>
C25H29N3O5

>  <Research_Area>
Cancer

>  <Clinical_Information>
No Development Reported

>  <SUPPLIER>
MedChemExpress

$$$$
Untitled Document
  ChemDraw07241710052D

 24 25  0  0  0  0  0  0  0  0999 V2000
    3.5724    1.0313    0.0000 C   0  0  0  0  0  0  0  0  0  0  0  0
    2.8579    0.6188    0.0000 C   0  0  0  0  0  0  0  0  0  0  0  0
    2.1434    1.0313    0.0000 C   0  0  0  0  0  0  0  0  0  0  0  0
    1.4289    0.6188    0.0000 C   0  0  0  0  0  0  0  0  0  0  0  0
    0.7145    0.2062    0.0000 C   0  0  0  0  0  0  0  0  0  0  0  0
    3.5724    1.8563    0.0000 O   0  0  0  0  0  0  0  0  0  0  0  0
    4.2868    0.6188    0.0000 N   0  0  0  0  0  0  0  0  0  0  0  0
    0.0000   -0.2062    0.0000 C   0  0  0  0  0  0  0  0  0  0  0  0
   -0.7145    0.2062    0.0000 C   0  0  0  0  0  0  0  0  0  0  0  0
   -1.4289   -0.2062    0.0000 C   0  0  0  0  0  0  0  0  0  0  0  0
   -1.4289   -1.0313    0.0000 C   0  0  0  0  0  0  0  0  0  0  0  0
   -0.7145   -1.4437    0.0000 C   0  0  0  0  0  0  0  0  0  0  0  0
    0.0000   -1.0313    0.0000 C   0  0  0  0  0  0  0  0  0  0  0  0
   -2.1434    0.2062    0.0000 N   0  0  0  0  0  0  0  0  0  0  0  0
   -2.8579   -0.2062    0.0000 S   0  0  0  0  0  0  0  0  0  0  0  0
   -3.2704    0.5082    0.0000 O   0  0  0  0  0  0  0  0  0  0  0  0
   -2.4454   -0.9207    0.0000 O   0  0  0  0  0  0  0  0  0  0  0  0
   -3.5724   -0.6187    0.0000 C   0  0  0  0  0  0  0  0  0  0  0  0
   -3.5724   -1.4437    0.0000 C   0  0  0  0  0  0  0  0  0  0  0  0
   -4.2868   -1.8563    0.0000 C   0  0  0  0  0  0  0  0  0  0  0  0
   -5.0013   -1.4437    0.0000 C   0  0  0  0  0  0  0  0  0  0  0  0
   -5.0013   -0.6187    0.0000 C   0  0  0  0  0  0  0  0  0  0  0  0
   -4.2868   -0.2062    0.0000 C   0  0  0  0  0  0  0  0  0  0  0  0
    5.0013    1.0313    0.0000 O   0  0  0  0  0  0  0  0  0  0  0  0
  1  2  1  0      
  2  3  2  0      
  3  4  1  0      
  4  5  3  0      
  1  6  2  0      
  1  7  1  0      
  8  9  1  0      
  9 10  2  0      
 10 11  1  0      
 11 12  2  0      
 12 13  1  0      
  8 13  2  0      
 15 16  2  0      
 15 17  2  0      
 18 19  1  0      
 19 20  2  0      
 20 21  1  0      
 21 22  2  0      
 22 23  1  0      
 18 23  2  0      
 15 18  1  0      
 14 15  1  0      
 10 14  1  0      
  5  8  1  0      
  7 24  1  0      
M  END

>  <RackCode>
HYCPK72335

>  <Cat. No.>
HY-102033

>  <Product Name>
Oxamflatin

>  <ROW>
O

>  <COLUMN>
11

>  <CAS No.>
151720-43-3

>  <MWt>
342.37

>  <Target>
HDAC

>  <Saltdate>
Free Base

>  <Smiles>
O=C(NO)/C=C/C#CC1=CC=CC(NS(=O)(C2=CC=CC=C2)=O)=C1

>  <Solvent>
DMSO Solution

>  <Batch No.>
245807

>  <Quantity>
10mM  * 50uL

>  <Pathway>
Cell Cycle/DNA Damage; Epigenetics

>  <Synonyms>
Metacept-3

>  <Formula>
C17H14N2O4S

>  <Research_Area>
Cancer

>  <Clinical_Information>
No Development Reported

>  <SUPPLIER>
MedChemExpress

$$$$
Untitled Document
  ChemDraw04031815032D

 33 38  0  0  0  0  0  0  0  0999 V2000
   -3.8908    1.7490    0.0000 C   0  0  0  0  0  0  0  0  0  0  0  0
   -4.2597    1.0111    0.0000 O   0  0  0  0  0  0  0  0  0  0  0  0
   -3.8052    0.3226    0.0000 C   0  0  0  0  0  0  0  0  0  0  0  0
   -2.9816    0.3720    0.0000 C   0  0  0  0  0  0  0  0  0  0  0  0
   -2.6127    1.1099    0.0000 N   0  0  0  0  0  0  0  0  0  0  0  0
   -3.0673    1.7984    0.0000 C   0  0  0  0  0  0  0  0  0  0  0  0
   -1.7920    1.1592    0.0000 C   0  0  0  0  0  0  0  0  0  0  0  0
   -1.3375    0.4707    0.0000 C   0  0  0  0  0  0  0  0  0  0  0  0
   -0.5140    0.5202    0.0000 C   0  0  0  0  0  0  0  0  0  0  0  0
   -0.1450    1.2581    0.0000 C   0  0  0  0  0  0  0  0  0  0  0  0
   -0.5996    1.9465    0.0000 C   0  0  0  0  0  0  0  0  0  0  0  0
   -1.4231    1.8971    0.0000 C   0  0  0  0  0  0  0  0  0  0  0  0
    0.0738   -0.0588    0.0000 N   0  0  0  0  0  0  0  0  0  0  0  0
    0.8060    0.3214    0.0000 C   0  0  0  0  0  0  0  0  0  0  0  0
    0.6708    1.1352    0.0000 N   0  0  0  0  0  0  0  0  0  0  0  0
    1.5414   -0.0463    0.0000 C   0  0  0  0  0  0  0  0  0  0  0  0
    0.0738   -0.8838    0.0000 C   0  0  0  0  0  0  0  0  0  0  0  0
   -0.6406   -1.2963    0.0000 C   0  0  0  0  0  0  0  0  0  0  0  0
   -1.3551   -0.8838    0.0000 C   0  0  0  0  0  0  0  0  0  0  0  0
   -2.0696   -1.2963    0.0000 C   0  0  0  0  0  0  0  0  0  0  0  0
   -2.0696   -2.1213    0.0000 C   0  0  0  0  0  0  0  0  0  0  0  0
   -1.3551   -2.5338    0.0000 C   0  0  0  0  0  0  0  0  0  0  0  0
   -0.6406   -2.1213    0.0000 C   0  0  0  0  0  0  0  0  0  0  0  0
    1.5908   -0.8698    0.0000 C   0  0  0  0  0  0  0  0  0  0  0  0
    2.3287   -1.2388    0.0000 C   0  0  0  0  0  0  0  0  0  0  0  0
    3.0172   -0.7842    0.0000 C   0  0  0  0  0  0  0  0  0  0  0  0
    2.9678    0.0393    0.0000 C   0  0  0  0  0  0  0  0  0  0  0  0
    2.2299    0.4083    0.0000 C   0  0  0  0  0  0  0  0  0  0  0  0
    3.8157   -0.9917    0.0000 O   0  0  0  0  0  0  0  0  0  0  0  0
    4.2597   -0.2964    0.0000 N   0  0  0  0  0  0  0  0  0  0  0  0
    3.7357    0.3408    0.0000 C   0  0  0  0  0  0  0  0  0  0  0  0
    3.9424    1.1365    0.0000 C   0  0  0  0  0  0  0  0  0  0  0  0
   -2.6996    2.5338    0.0000 C   0  0  0  0  0  0  0  0  0  0  0  0
  1  2  1  0      
  2  3  1  0      
  3  4  1  0      
  4  5  1  0      
  5  6  1  0      
  6  1  1  0      
  5  7  1  0      
  7  8  2  0      
  8  9  1  0      
  9 10  2  0      
 10 11  1  0      
 11 12  2  0      
 12  7  1  0      
  9 13  1  0      
 13 14  1  0      
 14 15  2  0      
 15 10  1  0      
 14 16  1  0      
 13 17  1  0      
 17 18  1  0      
 18 19  1  0      
 19 20  1  0      
 20 21  1  0      
 21 22  1  0      
 22 23  1  0      
 23 18  1  0      
 16 24  2  0      
 24 25  1  0      
 25 26  2  0      
 26 27  1  0      
 27 28  2  0      
 28 16  1  0      
 26 29  1  0      
 29 30  1  0      
 30 31  2  0      
 31 27  1  0      
 31 32  1  0      
  6 33  1  6      
M  END

>  <RackCode>
HYCPK72335

>  <Cat. No.>
HY-111503

>  <Product Name>
Y06137

>  <ROW>
P

>  <COLUMN>
11

>  <CAS No.>
2226534-49-0

>  <MWt>
444.57

>  <Target>
Epigenetic Reader Domain

>  <Saltdate>
Free Base

>  <Smiles>
CC1=NOC(C1=C2)=CC=C2C3=NC(C=C4)=C(N3CC5CCCCC5)C=C4N6CCOC[C@@H]6C

>  <Solvent>
DMSO Solution

>  <Batch No.>
41082

>  <Quantity>
10mM  * 50uL

>  <Pathway>
Epigenetics

>  <Synonyms>


>  <Formula>
C27H32N4O2

>  <Research_Area>
Cancer

>  <Clinical_Information>
No Development Reported

>  <SUPPLIER>
MedChemExpress

$$$$
Untitled Document
  ChemDraw01102308582D

 34 37  0  0  0  0  0  0  0  0999 V2000
    2.8579    1.0313    0.0000 N   0  0  0  0  0  0  0  0  0  0  0  0
    3.5724    0.6187    0.0000 C   0  0  0  0  0  0  0  0  0  0  0  0
    3.5724   -0.2062    0.0000 C   0  0  0  0  0  0  0  0  0  0  0  0
    2.8579   -0.6187    0.0000 C   0  0  0  0  0  0  0  0  0  0  0  0
    2.1434   -0.2062    0.0000 C   0  0  0  0  0  0  0  0  0  0  0  0
    1.4289   -0.6187    0.0000 C   0  0  0  0  0  0  0  0  0  0  0  0
    0.7145   -0.2062    0.0000 C   0  0  0  0  0  0  0  0  0  0  0  0
    0.7145    0.6187    0.0000 C   0  0  0  0  0  0  0  0  0  0  0  0
    1.4289    1.0313    0.0000 C   0  0  0  0  0  0  0  0  0  0  0  0
    2.1434    0.6187    0.0000 C   0  0  0  0  0  0  0  0  0  0  0  0
   -0.0000   -0.6187    0.0000 C   0  0  0  0  0  0  0  0  0  0  0  0
   -0.0000   -1.4437    0.0000 O   0  0  0  0  0  0  0  0  0  0  0  0
   -0.7145   -0.2062    0.0000 N   0  0  0  0  0  0  0  0  0  0  0  0
   -0.7145    0.6187    0.0000 C   0  0  0  0  0  0  0  0  0  0  0  0
   -1.4289    1.0313    0.0000 C   0  0  0  0  0  0  0  0  0  0  0  0
   -2.1434    0.6187    0.0000 C   0  0  0  0  0  0  0  0  0  0  0  0
   -2.8579    1.0313    0.0000 C   0  0  0  0  0  0  0  0  0  0  0  0
   -2.8579    1.8563    0.0000 C   0  0  0  0  0  0  0  0  0  0  0  0
   -2.1434    2.2687    0.0000 C   0  0  0  0  0  0  0  0  0  0  0  0
   -1.4289    1.8563    0.0000 N   0  0  0  0  0  0  0  0  0  0  0  0
   -3.5724    2.2687    0.0000 C   0  0  0  0  0  0  0  0  0  0  0  0
   -4.2869    1.8563    0.0000 F   0  0  0  0  0  0  0  0  0  0  0  0
   -4.2869    2.6812    0.0000 F   0  0  0  0  0  0  0  0  0  0  0  0
   -3.5724    3.0938    0.0000 F   0  0  0  0  0  0  0  0  0  0  0  0
   -1.4289   -0.6187    0.0000 C   0  0  0  0  0  0  0  0  0  0  0  0
   -2.1434   -0.2062    0.0000 C   0  0  0  0  0  0  0  0  0  0  0  0
   -1.4289   -1.4437    0.0000 C   0  0  0  0  0  0  0  0  0  0  0  0
   -0.7145   -1.8563    0.0000 N   0  0  0  0  0  0  0  0  0  0  0  0
   -0.7145   -2.6812    0.0000 C   0  0  0  0  0  0  0  0  0  0  0  0
   -1.4289   -3.0938    0.0000 C   0  0  0  0  0  0  0  0  0  0  0  0
   -2.1434   -2.6812    0.0000 C   0  0  0  0  0  0  0  0  0  0  0  0
   -2.1434   -1.8563    0.0000 N   0  0  0  0  0  0  0  0  0  0  0  0
    4.2869   -0.6187    0.0000 C   0  0  0  0  0  0  0  0  0  0  0  0
    4.2869    1.0313    0.0000 N   0  0  0  0  0  0  0  0  0  0  0  0
  1  2  2  0      
  2  3  1  0      
  3  4  2  0      
  4  5  1  0      
  5  6  2  0      
  6  7  1  0      
  7  8  2  0      
  8  9  1  0      
  9 10  2  0      
  1 10  1  0      
  5 10  1  0      
 11 12  2  0      
 11 13  1  0      
  7 11  1  0      
 15 16  1  0      
 16 17  2  0      
 17 18  1  0      
 18 19  2  0      
 19 20  1  0      
 15 20  2  0      
 21 22  1  0      
 21 23  1  0      
 21 24  1  0      
 18 21  1  0      
 14 15  1  0      
 13 14  1  0      
 25 26  1  1      
 27 28  1  0      
 28 29  2  0      
 29 30  1  0      
 30 31  2  0      
 31 32  1  0      
 27 32  2  0      
 25 27  1  0      
 13 25  1  0      
  3 33  1  0      
  2 34  1  0      
M  END

>  <RackCode>
HYCPK72335

>  <Cat. No.>
HY-148674

>  <Product Name>
PRMT5-IN-25

>  <ROW>
A

>  <COLUMN>
12

>  <CAS No.>
2691869-82-4

>  <MWt>
466.46

>  <Target>
Histone Methyltransferase

>  <Saltdate>


>  <Smiles>
O=C(C1=CC=C2N=C(N)C(C)=CC2=C1)N([C@@H](C3=NC=CC=N3)C)CC4=NC=C(C(F)(F)F)C=C4

>  <Solvent>
DMSO Solution

>  <Batch No.>
279665

>  <Quantity>
10mM  * 50uL

>  <Pathway>
Epigenetics

>  <Synonyms>


>  <Formula>
C24H21F3N6O

>  <Research_Area>
Cancer

>  <Clinical_Information>
No Development Reported

>  <SUPPLIER>
MedChemExpress

$$$$
Untitled Document
  ChemDraw05101917272D

 35 40  0  0  0  0  0  0  0  0999 V2000
   -1.7758    2.2382    0.0000 O   0  0  0  0  0  0  0  0  0  0  0  0
   -1.5922    1.4339    0.0000 C   0  0  0  0  0  0  0  0  0  0  0  0
   -2.2372    0.9195    0.0000 C   0  0  0  0  0  0  0  0  0  0  0  0
   -2.9517    1.3320    0.0000 C   0  0  0  0  0  0  0  0  0  0  0  0
   -3.6662    0.9195    0.0000 C   0  0  0  0  0  0  0  0  0  0  0  0
   -4.3806    1.3320    0.0000 C   0  0  0  0  0  0  0  0  0  0  0  0
   -5.0951    0.9195    0.0000 C   0  0  0  0  0  0  0  0  0  0  0  0
   -5.0951    0.0945    0.0000 C   0  0  0  0  0  0  0  0  0  0  0  0
   -4.3806   -0.3180    0.0000 C   0  0  0  0  0  0  0  0  0  0  0  0
   -3.6662    0.0945    0.0000 C   0  0  0  0  0  0  0  0  0  0  0  0
   -2.9517   -0.3180    0.0000 C   0  0  0  0  0  0  0  0  0  0  0  0
   -2.2372    0.0945    0.0000 C   0  0  0  0  0  0  0  0  0  0  0  0
   -1.5922   -0.4199    0.0000 N   0  0  0  0  0  0  0  0  0  0  0  0
   -1.7758   -1.2242    0.0000 C   0  0  0  0  0  0  0  0  0  0  0  0
   -0.7879   -0.2363    0.0000 C   0  0  0  0  0  0  0  0  0  0  0  0
   -0.3232   -0.9179    0.0000 N   0  0  0  0  0  0  0  0  0  0  0  0
    0.4995   -0.8563    0.0000 C   0  0  0  0  0  0  0  0  0  0  0  0
    0.9120   -1.5708    0.0000 N   0  0  0  0  0  0  0  0  0  0  0  0
    1.7370   -1.5708    0.0000 C   0  0  0  0  0  0  0  0  0  0  0  0
    2.2219   -0.9033    0.0000 C   0  0  0  0  0  0  0  0  0  0  0  0
    3.0066   -1.1583    0.0000 N   0  0  0  0  0  0  0  0  0  0  0  0
    3.0066   -1.9833    0.0000 N   0  0  0  0  0  0  0  0  0  0  0  0
    2.2219   -2.2382    0.0000 C   0  0  0  0  0  0  0  0  0  0  0  0
    3.6740   -0.6733    0.0000 C   0  0  0  0  0  0  0  0  0  0  0  0
    3.5878    0.1471    0.0000 C   0  0  0  0  0  0  0  0  0  0  0  0
    4.2552    0.6321    0.0000 C   0  0  0  0  0  0  0  0  0  0  0  0
    5.0089    0.2965    0.0000 N   0  0  0  0  0  0  0  0  0  0  0  0
    5.0951   -0.5240    0.0000 C   0  0  0  0  0  0  0  0  0  0  0  0
    4.4277   -1.0089    0.0000 C   0  0  0  0  0  0  0  0  0  0  0  0
    0.8575   -0.1130    0.0000 N   0  0  0  0  0  0  0  0  0  0  0  0
    0.3927    0.5687    0.0000 C   0  0  0  0  0  0  0  0  0  0  0  0
    0.8052    1.2831    0.0000 C   0  0  0  0  0  0  0  0  0  0  0  0
   -0.4300    0.5070    0.0000 C   0  0  0  0  0  0  0  0  0  0  0  0
   -0.7879    1.2503    0.0000 N   0  0  0  0  0  0  0  0  0  0  0  0
   -0.2735    1.8953    0.0000 C   0  0  0  0  0  0  0  0  0  0  0  0
  1  2  2  0      
  2  3  1  0      
  3  4  1  0      
  4  5  2  0      
  5  6  1  0      
  6  7  2  0      
  7  8  1  0      
  8  9  2  0      
  9 10  1  0      
  5 10  1  0      
 10 11  2  0      
  3 12  2  0      
 11 12  1  0      
 12 13  1  0      
 13 14  1  0      
 13 15  1  0      
 15 16  2  0      
 16 17  1  0      
 17 18  1  0      
 18 19  1  0      
 19 20  2  0      
 20 21  1  0      
 21 22  1  0      
 22 23  2  0      
 19 23  1  0      
 21 24  1  0      
 24 25  1  0      
 25 26  1  0      
 26 27  1  0      
 27 28  1  0      
 28 29  1  0      
 24 29  1  0      
 17 30  2  0      
 30 31  1  0      
 31 32  1  0      
 31 33  2  0      
 15 33  1  0      
 33 34  1  0      
  2 34  1  0      
 34 35  1  0      
M  END

>  <RackCode>
HYCPK72335

>  <Cat. No.>
HY-12334

>  <Product Name>
HTH-01-015

>  <ROW>
B

>  <COLUMN>
12

>  <CAS No.>
1613724-42-7

>  <MWt>
468.55

>  <Target>
AMPK

>  <Saltdate>
Free Base

>  <Smiles>
O=C1C(C=C2C=CC=CC2=C3)=C3N(C)C4=NC(NC5=CN(N=C5)C6CCNCC6)=NC(C)=C4N1C

>  <Solvent>
DMSO Solution

>  <Batch No.>
18116

>  <Quantity>
10mM  * 50uL

>  <Pathway>
Epigenetics; PI3K/Akt/mTOR

>  <Synonyms>


>  <Formula>
C26H28N8O

>  <Research_Area>
Cancer

>  <Clinical_Information>
No Development Reported

>  <SUPPLIER>
MedChemExpress

$$$$
Untitled Document
  ChemDraw12071816002D

 35 40  0  0  0  0  0  0  0  0999 V2000
    0.4552   -0.7350    0.0000 C   0  0  0  0  0  0  0  0  0  0  0  0
    1.1697   -0.3225    0.0000 N   0  0  0  0  0  0  0  0  0  0  0  0
    1.8842   -0.7350    0.0000 C   0  0  0  0  0  0  0  0  0  0  0  0
    1.8842   -1.5600    0.0000 C   0  0  0  0  0  0  0  0  0  0  0  0
    1.1697   -1.9725    0.0000 C   0  0  0  0  0  0  0  0  0  0  0  0
    0.4552   -1.5600    0.0000 N   0  0  0  0  0  0  0  0  0  0  0  0
    2.6688   -0.4801    0.0000 N   0  0  0  0  0  0  0  0  0  0  0  0
    2.6688   -1.8150    0.0000 C   0  0  0  0  0  0  0  0  0  0  0  0
    3.1537   -1.1475    0.0000 C   0  0  0  0  0  0  0  0  0  0  0  0
    3.9787   -1.1475    0.0000 O   0  0  0  0  0  0  0  0  0  0  0  0
   -0.2592   -0.3225    0.0000 N   0  0  0  0  0  0  0  0  0  0  0  0
   -0.9737   -0.7350    0.0000 C   0  0  0  0  0  0  0  0  0  0  0  0
   -1.6882   -0.3225    0.0000 C   0  0  0  0  0  0  0  0  0  0  0  0
   -2.4027   -0.7350    0.0000 C   0  0  0  0  0  0  0  0  0  0  0  0
   -2.4027   -1.5600    0.0000 C   0  0  0  0  0  0  0  0  0  0  0  0
   -1.6882   -1.9725    0.0000 C   0  0  0  0  0  0  0  0  0  0  0  0
   -0.9737   -1.5600    0.0000 C   0  0  0  0  0  0  0  0  0  0  0  0
   -3.1171   -0.3225    0.0000 C   0  0  0  0  0  0  0  0  0  0  0  0
   -3.8316   -0.7350    0.0000 N   0  0  0  0  0  0  0  0  0  0  0  0
   -3.9178   -1.5555    0.0000 C   0  0  0  0  0  0  0  0  0  0  0  0
   -4.7248   -1.7271    0.0000 C   0  0  0  0  0  0  0  0  0  0  0  0
   -5.1373   -1.0126    0.0000 C   0  0  0  0  0  0  0  0  0  0  0  0
   -4.5853   -0.3995    0.0000 C   0  0  0  0  0  0  0  0  0  0  0  0
    3.2819   -2.3670    0.0000 C   0  0  0  0  0  0  0  0  0  0  0  0
    2.4973   -2.6220    0.0000 C   0  0  0  0  0  0  0  0  0  0  0  0
    2.9237    0.3045    0.0000 C   0  0  0  0  0  0  0  0  0  0  0  0
    2.4388    0.9720    0.0000 C   0  0  0  0  0  0  0  0  0  0  0  0
    2.9237    1.6394    0.0000 C   0  0  0  0  0  0  0  0  0  0  0  0
    3.7084    1.3845    0.0000 C   0  0  0  0  0  0  0  0  0  0  0  0
    4.4228    1.7970    0.0000 C   0  0  0  0  0  0  0  0  0  0  0  0
    5.1373    1.3845    0.0000 C   0  0  0  0  0  0  0  0  0  0  0  0
    5.1373    0.5595    0.0000 C   0  0  0  0  0  0  0  0  0  0  0  0
    4.4228    0.1470    0.0000 C   0  0  0  0  0  0  0  0  0  0  0  0
    3.7084    0.5595    0.0000 C   0  0  0  0  0  0  0  0  0  0  0  0
    4.4228    2.6220    0.0000 O   0  0  0  0  0  0  0  0  0  0  0  0
  1  2  1  0      
  2  3  2  0      
  3  4  1  0      
  4  5  2  0      
  5  6  1  0      
  1  6  2  0      
  8  9  1  0      
  7  9  1  0      
  3  7  1  0      
  4  8  1  0      
  9 10  2  0      
 12 13  1  0      
 13 14  2  0      
 14 15  1  0      
 15 16  2  0      
 16 17  1  0      
 12 17  2  0      
 19 20  1  0      
 20 21  1  0      
 21 22  1  0      
 22 23  1  0      
 19 23  1  0      
 18 19  1  0      
 14 18  1  0      
 11 12  1  0      
  1 11  1  0      
  8 24  1  0      
  8 25  1  0      
 26 27  1  0      
 27 28  1  0      
 28 29  1  0      
 29 30  1  0      
 30 31  2  0      
 31 32  1  0      
 32 33  2  0      
 33 34  1  0      
 26 34  1  0      
 29 34  2  0      
 30 35  1  0      
 26  7  1  1      
M  END

>  <RackCode>
HYCPK72335

>  <Cat. No.>
HY-120877

>  <Product Name>
MRT199665

>  <ROW>
C

>  <COLUMN>
12

>  <CAS No.>
1456858-57-3

>  <MWt>
469.58

>  <Target>
AMPK; Apoptosis; MARK; Salt-inducible Kinase (SIK)

>  <Saltdate>


>  <Smiles>
O=C1C(C)(C)C2=CN=C(NC3=CC=CC(CN4CCCC4)=C3)N=C2N1[C@H]5CCC6=C5C=CC=C6O

>  <Solvent>
DMSO Solution

>  <Batch No.>
87254

>  <Quantity>
10mM  * 50uL

>  <Pathway>
Apoptosis; Cell Cycle/DNA Damage; Epigenetics; Immunology/Inflammation; PI3K/Akt/mTOR

>  <Synonyms>


>  <Formula>
C28H31N5O2

>  <Research_Area>
Cancer

>  <Clinical_Information>
No Development Reported

>  <SUPPLIER>
MedChemExpress

$$$$
Untitled Document
  ChemDraw11081816192D

 38 43  0  0  0  0  0  0  0  0999 V2000
    2.7801   -2.7103    0.0000 C   0  0  0  0  0  0  0  0  0  0  0  0
    2.0656   -3.1228    0.0000 C   0  0  0  0  0  0  0  0  0  0  0  0
    1.3512   -2.7103    0.0000 C   0  0  0  0  0  0  0  0  0  0  0  0
    1.3512   -1.8853    0.0000 C   0  0  0  0  0  0  0  0  0  0  0  0
    2.0656   -1.4728    0.0000 C   0  0  0  0  0  0  0  0  0  0  0  0
    2.7801   -1.8853    0.0000 N   0  0  0  0  0  0  0  0  0  0  0  0
    3.4946   -3.1228    0.0000 C   0  0  0  0  0  0  0  0  0  0  0  0
    3.4946   -3.9478    0.0000 O   0  0  0  0  0  0  0  0  0  0  0  0
    4.2090   -2.7103    0.0000 N   0  0  0  0  0  0  0  0  0  0  0  0
    4.9235   -3.1228    0.0000 C   0  0  0  0  0  0  0  0  0  0  0  0
   -0.0778   -0.2353    0.0000 C   0  0  0  0  0  0  0  0  0  0  0  0
    0.6367   -0.6478    0.0000 N   0  0  0  0  0  0  0  0  0  0  0  0
    0.6367   -1.4728    0.0000 C   0  0  0  0  0  0  0  0  0  0  0  0
   -0.0778   -1.8853    0.0000 C   0  0  0  0  0  0  0  0  0  0  0  0
   -0.7923   -1.4728    0.0000 C   0  0  0  0  0  0  0  0  0  0  0  0
   -1.5067   -1.8853    0.0000 C   0  0  0  0  0  0  0  0  0  0  0  0
   -2.2212   -1.4728    0.0000 C   0  0  0  0  0  0  0  0  0  0  0  0
   -2.2212   -0.6478    0.0000 C   0  0  0  0  0  0  0  0  0  0  0  0
   -1.5067   -0.2353    0.0000 C   0  0  0  0  0  0  0  0  0  0  0  0
   -0.7923   -0.6478    0.0000 C   0  0  0  0  0  0  0  0  0  0  0  0
   -2.9811    0.9031    0.0000 C   0  0  0  0  0  0  0  0  0  0  0  0
   -2.1742    1.0746    0.0000 C   0  0  0  0  0  0  0  0  0  0  0  0
   -1.9192    1.8592    0.0000 C   0  0  0  0  0  0  0  0  0  0  0  0
   -2.4713    2.4723    0.0000 C   0  0  0  0  0  0  0  0  0  0  0  0
   -3.2782    2.3008    0.0000 C   0  0  0  0  0  0  0  0  0  0  0  0
   -3.5332    1.5162    0.0000 N   0  0  0  0  0  0  0  0  0  0  0  0
   -0.8393    1.0746    0.0000 N   0  0  0  0  0  0  0  0  0  0  0  0
   -1.0942    1.8592    0.0000 N   0  0  0  0  0  0  0  0  0  0  0  0
   -1.5067    0.5897    0.0000 C   0  0  0  0  0  0  0  0  0  0  0  0
    0.6961    3.1079    0.0000 C   0  0  0  0  0  0  0  0  0  0  0  0
    0.2112    2.4404    0.0000 C   0  0  0  0  0  0  0  0  0  0  0  0
   -0.6093    2.5267    0.0000 C   0  0  0  0  0  0  0  0  0  0  0  0
   -0.9449    3.2804    0.0000 C   0  0  0  0  0  0  0  0  0  0  0  0
   -0.4599    3.9478    0.0000 C   0  0  0  0  0  0  0  0  0  0  0  0
    0.3605    3.8616    0.0000 O   0  0  0  0  0  0  0  0  0  0  0  0
   -4.3401    1.3447    0.0000 C   0  0  0  0  0  0  0  0  0  0  0  0
   -4.5537    0.5478    0.0000 O   0  0  0  0  0  0  0  0  0  0  0  0
   -4.9235    1.9280    0.0000 C   0  0  0  0  0  0  0  0  0  0  0  0
  1  2  1  0      
  2  3  2  0      
  3  4  1  0      
  4  5  2  0      
  5  6  1  0      
  1  6  2  0      
  1  7  1  0      
  7  8  2  0      
  7  9  1  0      
  9 10  1  0      
 11 12  2  0      
 12 13  1  0      
 13 14  2  0      
 14 15  1  0      
 15 16  1  0      
 16 17  2  0      
 17 18  1  0      
 18 19  2  0      
 19 20  1  0      
 11 20  1  0      
 15 20  2  0      
 21 22  1  0      
 22 23  2  0      
 23 24  1  0      
 24 25  1  0      
 25 26  1  0      
 21 26  1  0      
 27 28  1  0      
 27 29  2  0      
 22 29  1  0      
 23 28  1  0      
 30 31  1  0      
 31 32  1  0      
 32 33  1  0      
 33 34  1  0      
 34 35  1  0      
 30 35  1  0      
 28 32  1  0      
 36 37  2  0      
 36 38  1  0      
 26 36  1  0      
 19 29  1  0      
  4 13  1  0      
M  END

>  <RackCode>
HYCPK72335

>  <Cat. No.>
HY-120028

>  <Product Name>
GNE-207

>  <ROW>
D

>  <COLUMN>
12

>  <CAS No.>
2158266-58-9

>  <MWt>
510.59

>  <Target>
Epigenetic Reader Domain; Histone Acetyltransferase

>  <Saltdate>
Free Base

>  <Smiles>
O=C(NC)C1=NC=C(C2=CC3=C(C=N2)C(C4=NN(C5CCOCC5)C6=C4CN(C(C)=O)CC6)=CC=C3)C=C1

>  <Solvent>
DMSO Solution

>  <Batch No.>
48173

>  <Quantity>
10mM  * 50uL

>  <Pathway>
Epigenetics

>  <Synonyms>


>  <Formula>
C29H30N6O3

>  <Research_Area>
Cancer

>  <Clinical_Information>
No Development Reported

>  <SUPPLIER>
MedChemExpress

$$$$
Untitled Document
  ChemDraw04092414082D

 26 30  0  0  0  0  0  0  0  0999 V2000
    3.9339   -0.3967    0.0000 N   0  0  0  0  0  0  0  0  0  0  0  0
    3.4358   -1.0544    0.0000 C   0  0  0  0  0  0  0  0  0  0  0  0
    2.6564   -0.7839    0.0000 C   0  0  0  0  0  0  0  0  0  0  0  0
    1.9339   -1.1822    0.0000 C   0  0  0  0  0  0  0  0  0  0  0  0
    1.2277   -0.7555    0.0000 C   0  0  0  0  0  0  0  0  0  0  0  0
    1.2441    0.0693    0.0000 C   0  0  0  0  0  0  0  0  0  0  0  0
    1.9666    0.4675    0.0000 C   0  0  0  0  0  0  0  0  0  0  0  0
    2.6728    0.0409    0.0000 C   0  0  0  0  0  0  0  0  0  0  0  0
    3.4623    0.2802    0.0000 N   0  0  0  0  0  0  0  0  0  0  0  0
    0.5052   -1.1538    0.0000 C   0  0  0  0  0  0  0  0  0  0  0  0
    0.4027   -1.9724    0.0000 C   0  0  0  0  0  0  0  0  0  0  0  0
   -0.4075   -2.1278    0.0000 N   0  0  0  0  0  0  0  0  0  0  0  0
   -0.8058   -1.4053    0.0000 C   0  0  0  0  0  0  0  0  0  0  0  0
   -1.6092   -1.2178    0.0000 C   0  0  0  0  0  0  0  0  0  0  0  0
   -1.8485   -0.4283    0.0000 C   0  0  0  0  0  0  0  0  0  0  0  0
   -1.2844    0.1737    0.0000 C   0  0  0  0  0  0  0  0  0  0  0  0
   -0.4810   -0.0138    0.0000 N   0  0  0  0  0  0  0  0  0  0  0  0
   -0.2417   -0.8033    0.0000 N   0  0  0  0  0  0  0  0  0  0  0  0
   -1.5237    0.9633    0.0000 N   0  0  0  0  0  0  0  0  0  0  0  0
   -0.9596    1.5653    0.0000 C   0  0  0  0  0  0  0  0  0  0  0  0
   -2.3271    1.1508    0.0000 C   0  0  0  0  0  0  0  0  0  0  0  0
   -2.5664    1.9403    0.0000 C   0  0  0  0  0  0  0  0  0  0  0  0
   -3.3698    2.1278    0.0000 C   0  0  0  0  0  0  0  0  0  0  0  0
   -3.9339    1.5258    0.0000 O   0  0  0  0  0  0  0  0  0  0  0  0
   -3.6946    0.7363    0.0000 C   0  0  0  0  0  0  0  0  0  0  0  0
   -2.8912    0.5488    0.0000 C   0  0  0  0  0  0  0  0  0  0  0  0
  1  2  2  0      
  2  3  1  0      
  3  4  2  0      
  4  5  1  0      
  5  6  2  0      
  6  7  1  0      
  7  8  2  0      
  3  8  1  0      
  8  9  1  0      
  1  9  1  0      
  5 10  1  0      
 10 11  2  0      
 11 12  1  0      
 12 13  2  0      
 13 14  1  0      
 14 15  2  0      
 15 16  1  0      
 16 17  2  0      
 17 18  1  0      
 13 18  1  0      
 10 18  1  0      
 16 19  1  0      
 19 20  1  0      
 19 21  1  0      
 21 22  1  0      
 22 23  1  0      
 23 24  1  0      
 24 25  1  0      
 25 26  1  0      
 21 26  1  0      
M  END

>  <RackCode>
HYCPK72335

>  <Cat. No.>
HY-160783

>  <Product Name>
SRI-43265

>  <ROW>
E

>  <COLUMN>
12

>  <CAS No.>
2727872-88-8

>  <MWt>
348.40

>  <Target>
HuR

>  <Saltdate>


>  <Smiles>
CN(C1CCOCC1)C2=NN3C(C=C2)=NC=C3C4=CC=C5C(C=NN5)=C4

>  <Solvent>
DMSO Solution

>  <Batch No.>
398577

>  <Quantity>
10mM  * 50uL

>  <Pathway>
Epigenetics

>  <Synonyms>


>  <Formula>
C19H20N6O

>  <Research_Area>
cancer

>  <Clinical_Information>
No Development Reported

>  <SUPPLIER>
MedChemExpress

$$$$
Untitled Document
  ChemDraw06261815412D

 30 33  0  0  0  0  0  0  0  0999 V2000
    2.5006    1.0313    0.0000 C   0  0  0  0  0  0  0  0  0  0  0  0
    3.2151    1.4438    0.0000 C   0  0  0  0  0  0  0  0  0  0  0  0
    3.2151    2.2688    0.0000 C   0  0  0  0  0  0  0  0  0  0  0  0
    3.9296    2.6813    0.0000 C   0  0  0  0  0  0  0  0  0  0  0  0
    4.6441    2.2688    0.0000 C   0  0  0  0  0  0  0  0  0  0  0  0
    4.6441    1.4438    0.0000 C   0  0  0  0  0  0  0  0  0  0  0  0
    3.9296    1.0313    0.0000 C   0  0  0  0  0  0  0  0  0  0  0  0
    2.5006    0.2063    0.0000 O   0  0  0  0  0  0  0  0  0  0  0  0
    1.7862    1.4438    0.0000 N   0  0  0  0  0  0  0  0  0  0  0  0
    1.0717    1.0313    0.0000 C   0  0  0  0  0  0  0  0  0  0  0  0
    1.0717    0.2063    0.0000 C   0  0  0  0  0  0  0  0  0  0  0  0
    0.3572   -0.2063    0.0000 C   0  0  0  0  0  0  0  0  0  0  0  0
   -0.3572    0.2063    0.0000 C   0  0  0  0  0  0  0  0  0  0  0  0
   -0.3572    1.0313    0.0000 C   0  0  0  0  0  0  0  0  0  0  0  0
    0.3572    1.4438    0.0000 C   0  0  0  0  0  0  0  0  0  0  0  0
   -1.0717   -0.2063    0.0000 N   0  0  0  0  0  0  0  0  0  0  0  0
   -1.0717   -2.6813    0.0000 N   0  0  0  0  0  0  0  0  0  0  0  0
   -0.3572   -2.2688    0.0000 C   0  0  0  0  0  0  0  0  0  0  0  0
   -0.3572   -1.4438    0.0000 N   0  0  0  0  0  0  0  0  0  0  0  0
   -1.0717   -1.0313    0.0000 C   0  0  0  0  0  0  0  0  0  0  0  0
   -1.7862   -1.4438    0.0000 C   0  0  0  0  0  0  0  0  0  0  0  0
   -2.5006   -1.0313    0.0000 C   0  0  0  0  0  0  0  0  0  0  0  0
   -3.2151   -1.4438    0.0000 C   0  0  0  0  0  0  0  0  0  0  0  0
   -3.2151   -2.2688    0.0000 C   0  0  0  0  0  0  0  0  0  0  0  0
   -2.5006   -2.6813    0.0000 C   0  0  0  0  0  0  0  0  0  0  0  0
   -1.7862   -2.2688    0.0000 C   0  0  0  0  0  0  0  0  0  0  0  0
   -3.9296   -2.6813    0.0000 O   0  0  0  0  0  0  0  0  0  0  0  0
   -4.6441   -2.2688    0.0000 C   0  0  0  0  0  0  0  0  0  0  0  0
   -3.9296   -1.0313    0.0000 O   0  0  0  0  0  0  0  0  0  0  0  0
   -4.6441   -1.4438    0.0000 C   0  0  0  0  0  0  0  0  0  0  0  0
  1  2  1  0      
  2  3  1  0      
  3  4  2  0      
  4  5  1  0      
  5  6  2  0      
  6  7  1  0      
  2  7  2  0      
  1  8  2  0      
  1  9  1  0      
 10 11  1  0      
 11 12  2  0      
 12 13  1  0      
 13 14  2  0      
 14 15  1  0      
 10 15  2  0      
 17 18  1  0      
 18 19  2  0      
 19 20  1  0      
 20 21  2  0      
 21 22  1  0      
 22 23  2  0      
 23 24  1  0      
 24 25  2  0      
 25 26  1  0      
 17 26  2  0      
 21 26  1  0      
 27 28  1  0      
 24 27  1  0      
 29 30  1  0      
 23 29  1  0      
 16 20  1  0      
 13 16  1  0      
  9 10  1  0      
M  END

>  <RackCode>
HYCPK72335

>  <Cat. No.>
HY-112355

>  <Product Name>
Aurora kinase inhibitor-2

>  <ROW>
F

>  <COLUMN>
12

>  <CAS No.>
331770-21-9

>  <MWt>
400.43

>  <Target>
Aurora Kinase

>  <Saltdate>


>  <Smiles>
O=C(NC1=CC=C(NC2=C3C=C(OC)C(OC)=CC3=NC=N2)C=C1)C4=CC=CC=C4

>  <Solvent>
DMSO Solution

>  <Batch No.>
104812

>  <Quantity>
10mM  * 50uL

>  <Pathway>
Cell Cycle/DNA Damage; Epigenetics

>  <Synonyms>


>  <Formula>
C23H20N4O3

>  <Research_Area>
Cancer

>  <Clinical_Information>
No Development Reported

>  <SUPPLIER>
MedChemExpress

$$$$
Untitled Document
  ChemDraw02031613272D

 22 24  0  0  0  0  0  0  0  0999 V2000
   -0.6529    0.4125    0.0000 N   0  0  0  0  0  0  0  0  0  0  0  0
    0.0616    0.0000    0.0000 C   0  0  0  0  0  0  0  0  0  0  0  0
    0.0616   -0.8250    0.0000 O   0  0  0  0  0  0  0  0  0  0  0  0
    0.7761    0.4125    0.0000 N   0  0  0  0  0  0  0  0  0  0  0  0
    1.4906    0.0000    0.0000 C   0  0  0  0  0  0  0  0  0  0  0  0
    2.2049    0.4125    0.0000 C   0  0  0  0  0  0  0  0  0  0  0  0
    2.9193    0.0000    0.0000 N   0  0  0  0  0  0  0  0  0  0  0  0
    3.6730    0.3356    0.0000 C   0  0  0  0  0  0  0  0  0  0  0  0
    4.2250   -0.2775    0.0000 C   0  0  0  0  0  0  0  0  0  0  0  0
    3.8125   -0.9920    0.0000 C   0  0  0  0  0  0  0  0  0  0  0  0
    3.0055   -0.8205    0.0000 C   0  0  0  0  0  0  0  0  0  0  0  0
    2.2049    1.2375    0.0000 O   0  0  0  0  0  0  0  0  0  0  0  0
   -2.0817    0.4125    0.0000 C   0  0  0  0  0  0  0  0  0  0  0  0
   -1.3673    0.0000    0.0000 C   0  0  0  0  0  0  0  0  0  0  0  0
   -1.3673   -0.8250    0.0000 C   0  0  0  0  0  0  0  0  0  0  0  0
   -2.0817   -1.2375    0.0000 C   0  0  0  0  0  0  0  0  0  0  0  0
   -2.7961   -0.8250    0.0000 C   0  0  0  0  0  0  0  0  0  0  0  0
   -3.5105   -1.2375    0.0000 C   0  0  0  0  0  0  0  0  0  0  0  0
   -4.2250   -0.8250    0.0000 C   0  0  0  0  0  0  0  0  0  0  0  0
   -4.2250    0.0000    0.0000 C   0  0  0  0  0  0  0  0  0  0  0  0
   -3.5105    0.4125    0.0000 C   0  0  0  0  0  0  0  0  0  0  0  0
   -2.7961    0.0000    0.0000 C   0  0  0  0  0  0  0  0  0  0  0  0
  1  2  1  0      
  2  3  2  0      
  2  4  1  0      
  5  6  1  0      
  7  8  1  0      
  8  9  1  0      
  9 10  1  0      
 10 11  1  0      
  7 11  1  0      
  6  7  1  0      
  6 12  2  0      
  4  5  1  0      
 13 14  1  0      
 14 15  2  0      
 15 16  1  0      
 16 17  2  0      
 17 18  1  0      
 18 19  2  0      
 19 20  1  0      
 20 21  2  0      
 21 22  1  0      
 13 22  2  0      
 17 22  1  0      
  1 14  1  0      
M  END

>  <RackCode>
HYCPK72335

>  <Cat. No.>
HY-19714

>  <Product Name>
XY1

>  <ROW>
G

>  <COLUMN>
12

>  <CAS No.>
1624117-53-8

>  <MWt>
297.35

>  <Target>
Histone Methyltransferase

>  <Saltdate>
Free Base

>  <Smiles>
O=C(NCC(N1CCCC1)=O)NC2=CC=C3C=CC=CC3=C2

>  <Solvent>
DMSO Solution

>  <Batch No.>
19518

>  <Quantity>
10mM  * 50uL

>  <Pathway>
Epigenetics

>  <Synonyms>


>  <Formula>
C17H19N3O2

>  <Research_Area>
Cancer

>  <Clinical_Information>
No Development Reported

>  <SUPPLIER>
MedChemExpress

$$$$
Untitled Document
  ChemDraw10301811232D

 32 35  0  0  0  0  0  0  0  0999 V2000
    1.4842   -1.0313    0.0000 C   0  0  0  0  0  0  0  0  0  0  0  0
    1.4842   -0.2062    0.0000 C   0  0  0  0  0  0  0  0  0  0  0  0
    2.1987    0.2062    0.0000 C   0  0  0  0  0  0  0  0  0  0  0  0
    2.9131   -0.2062    0.0000 C   0  0  0  0  0  0  0  0  0  0  0  0
    2.9131   -1.0313    0.0000 C   0  0  0  0  0  0  0  0  0  0  0  0
    2.1987   -1.4437    0.0000 C   0  0  0  0  0  0  0  0  0  0  0  0
   -1.3737   -1.0313    0.0000 C   0  0  0  0  0  0  0  0  0  0  0  0
   -0.6592   -1.4437    0.0000 C   0  0  0  0  0  0  0  0  0  0  0  0
    0.0553   -1.0313    0.0000 C   0  0  0  0  0  0  0  0  0  0  0  0
    0.7697   -1.4437    0.0000 C   0  0  0  0  0  0  0  0  0  0  0  0
   -1.3737   -0.2062    0.0000 O   0  0  0  0  0  0  0  0  0  0  0  0
   -2.0881   -1.4437    0.0000 N   0  0  0  0  0  0  0  0  0  0  0  0
    3.6276    0.2062    0.0000 C   0  0  0  0  0  0  0  0  0  0  0  0
    3.6276    1.0313    0.0000 O   0  0  0  0  0  0  0  0  0  0  0  0
    4.3421   -0.2062    0.0000 N   0  0  0  0  0  0  0  0  0  0  0  0
    5.0566    0.2062    0.0000 C   0  0  0  0  0  0  0  0  0  0  0  0
    5.0566    1.0313    0.0000 C   0  0  0  0  0  0  0  0  0  0  0  0
    5.7710    1.4437    0.0000 C   0  0  0  0  0  0  0  0  0  0  0  0
    6.4855    1.0313    0.0000 C   0  0  0  0  0  0  0  0  0  0  0  0
    6.4855    0.2062    0.0000 C   0  0  0  0  0  0  0  0  0  0  0  0
    5.7710   -0.2062    0.0000 C   0  0  0  0  0  0  0  0  0  0  0  0
    4.3421    1.4437    0.0000 N   0  0  0  0  0  0  0  0  0  0  0  0
   -2.8026   -1.0313    0.0000 C   0  0  0  0  0  0  0  0  0  0  0  0
   -3.5171   -1.4437    0.0000 C   0  0  0  0  0  0  0  0  0  0  0  0
   -4.2316   -1.0313    0.0000 C   0  0  0  0  0  0  0  0  0  0  0  0
   -4.2316   -0.2062    0.0000 C   0  0  0  0  0  0  0  0  0  0  0  0
   -3.5171    0.2062    0.0000 C   0  0  0  0  0  0  0  0  0  0  0  0
   -2.8026   -0.2062    0.0000 C   0  0  0  0  0  0  0  0  0  0  0  0
   -4.9460    0.2062    0.0000 C   0  0  0  0  0  0  0  0  0  0  0  0
   -5.7710    0.2062    0.0000 C   0  0  0  0  0  0  0  0  0  0  0  0
   -5.3585    0.9207    0.0000 C   0  0  0  0  0  0  0  0  0  0  0  0
   -6.4855   -0.2062    0.0000 N   0  0  0  0  0  0  0  0  0  0  0  0
  1  2  1  0      
  2  3  2  0      
  3  4  1  0      
  4  5  2  0      
  5  6  1  0      
  1  6  2  0      
  7  8  1  0      
  8  9  1  0      
  9 10  1  0      
  7 11  2  0      
  7 12  1  0      
  1 10  1  0      
 13 14  2  0      
 16 17  1  0      
 17 18  2  0      
 18 19  1  0      
 19 20  2  0      
 20 21  1  0      
 16 21  2  0      
 17 22  1  0      
 15 16  1  0      
 13 15  1  0      
  4 13  1  0      
 23 24  1  0      
 24 25  2  0      
 25 26  1  0      
 26 27  2  0      
 27 28  1  0      
 23 28  2  0      
 29 30  1  0      
 30 31  1  0      
 29 31  1  0      
 30 32  1  6      
 29 26  1  1      
 12 23  1  0      
M  END

>  <RackCode>
HYCPK72335

>  <Cat. No.>
HY-111048

>  <Product Name>
Corin

>  <ROW>
H

>  <COLUMN>
12

>  <CAS No.>
1808113-09-8

>  <MWt>
428.53

>  <Target>
HDAC; Histone Demethylase

>  <Saltdate>
Free Base

>  <Smiles>
O=C(NC1=CC=C([C@H]2[C@H](N)C2)C=C1)CCCC3=CC=C(C(NC4=CC=CC=C4N)=O)C=C3

>  <Solvent>
DMSO Solution

>  <Batch No.>
238885

>  <Quantity>
10mM  * 50uL

>  <Pathway>
Cell Cycle/DNA Damage; Epigenetics

>  <Synonyms>


>  <Formula>
C26H28N4O2

>  <Research_Area>
Cancer

>  <Clinical_Information>
No Development Reported

>  <SUPPLIER>
MedChemExpress

$$$$
Untitled Document
  ChemDraw07272310122D

 41 46  0  0  0  0  0  0  0  0999 V2000
    1.7913   -0.4202    0.0000 C   0  0  0  0  0  0  0  0  0  0  0  0
    1.3383    0.2693    0.0000 C   0  0  0  0  0  0  0  0  0  0  0  0
    1.7088    1.0063    0.0000 C   0  0  0  0  0  0  0  0  0  0  0  0
    1.4207   -1.1573    0.0000 O   0  0  0  0  0  0  0  0  0  0  0  0
    2.6149   -0.3726    0.0000 N   0  0  0  0  0  0  0  0  0  0  0  0
    3.0680   -1.0621    0.0000 C   0  0  0  0  0  0  0  0  0  0  0  0
    3.8916   -1.0145    0.0000 C   0  0  0  0  0  0  0  0  0  0  0  0
    3.9741   -2.4410    0.0000 C   0  0  0  0  0  0  0  0  0  0  0  0
    2.6974   -1.7992    0.0000 C   0  0  0  0  0  0  0  0  0  0  0  0
    4.3446   -1.7039    0.0000 C   0  0  0  0  0  0  0  0  0  0  0  0
    3.1504   -2.4886    0.0000 C   0  0  0  0  0  0  0  0  0  0  0  0
    4.4271   -3.1305    0.0000 C   0  0  0  0  0  0  0  0  0  0  0  0
    0.0616    0.9111    0.0000 C   0  0  0  0  0  0  0  0  0  0  0  0
   -0.7620    0.8635    0.0000 C   0  0  0  0  0  0  0  0  0  0  0  0
    0.4322    1.6482    0.0000 O   0  0  0  0  0  0  0  0  0  0  0  0
    0.5146    0.2216    0.0000 N   0  0  0  0  0  0  0  0  0  0  0  0
   -3.1504   -0.7059    0.0000 C   0  0  0  0  0  0  0  0  0  0  0  0
   -3.6035   -0.0164    0.0000 C   0  0  0  0  0  0  0  0  0  0  0  0
   -3.2329    0.7207    0.0000 C   0  0  0  0  0  0  0  0  0  0  0  0
   -2.4093    0.7683    0.0000 C   0  0  0  0  0  0  0  0  0  0  0  0
   -1.9562    0.0788    0.0000 C   0  0  0  0  0  0  0  0  0  0  0  0
   -1.1326    0.1264    0.0000 N   0  0  0  0  0  0  0  0  0  0  0  0
   -0.6796   -0.5631    0.0000 C   0  0  0  0  0  0  0  0  0  0  0  0
    0.1441   -0.5154    0.0000 C   0  0  0  0  0  0  0  0  0  0  0  0
    0.5971   -1.2049    0.0000 C   0  0  0  0  0  0  0  0  0  0  0  0
    0.2265   -1.9420    0.0000 C   0  0  0  0  0  0  0  0  0  0  0  0
   -0.5971   -1.9896    0.0000 C   0  0  0  0  0  0  0  0  0  0  0  0
   -1.0501   -1.3001    0.0000 C   0  0  0  0  0  0  0  0  0  0  0  0
   -1.8738   -1.3478    0.0000 C   0  0  0  0  0  0  0  0  0  0  0  0
   -2.3268   -0.6583    0.0000 C   0  0  0  0  0  0  0  0  0  0  0  0
   -2.2444   -2.0848    0.0000 O   0  0  0  0  0  0  0  0  0  0  0  0
   -4.4271   -0.0640    0.0000 C   0  0  0  0  0  0  0  0  0  0  0  0
    3.8237    0.7154    0.0000 N   0  0  0  0  0  0  0  0  0  0  0  0
    3.0551    0.4156    0.0000 C   0  0  0  0  0  0  0  0  0  0  0  0
    2.5325    1.0540    0.0000 C   0  0  0  0  0  0  0  0  0  0  0  0
    2.9781    1.7483    0.0000 C   0  0  0  0  0  0  0  0  0  0  0  0
    2.7602    2.5440    0.0000 C   0  0  0  0  0  0  0  0  0  0  0  0
    3.3405    3.1305    0.0000 C   0  0  0  0  0  0  0  0  0  0  0  0
    4.1385    2.9213    0.0000 C   0  0  0  0  0  0  0  0  0  0  0  0
    4.3563    2.1255    0.0000 C   0  0  0  0  0  0  0  0  0  0  0  0
    3.7761    1.5390    0.0000 C   0  0  0  0  0  0  0  0  0  0  0  0
  1  2  1  0      
  2  3  1  0      
  1  4  2  0      
  1  5  1  0      
  6  7  1  0      
  6  9  2  0      
  7 10  2  0      
  8 10  1  0      
  8 11  2  0      
  9 11  1  0      
  8 12  1  0      
  5  6  1  0      
 13 14  1  0      
 13 15  2  0      
 13 16  1  0      
 17 18  1  0      
 18 19  2  0      
 19 20  1  0      
 20 21  2  0      
 21 22  1  0      
 22 23  1  0      
 23 24  1  0      
 24 25  2  0      
 25 26  1  0      
 26 27  2  0      
 27 28  1  0      
 23 28  2  0      
 28 29  1  0      
 29 30  1  0      
 21 30  1  0      
 17 30  2  0      
 29 31  2  0      
 18 32  1  0      
 14 22  1  0      
 33 34  1  0      
 34 35  2  0      
 35 36  1  0      
 36 37  1  0      
 37 38  2  0      
 38 39  1  0      
 39 40  2  0      
 40 41  1  0      
 33 41  1  0      
 36 41  2  0      
  3 35  1  0      
  2 16  1  1      
M  END

>  <RackCode>
HYCPK72335

>  <Cat. No.>
HY-154986

>  <Product Name>
MARK4 inhibitor 2

>  <ROW>
I

>  <COLUMN>
12

>  <CAS No.>


>  <MWt>
542.63

>  <Target>
AMPK; MARK

>  <Saltdate>


>  <Smiles>
O=C(NC1=CC=C(C)C=C1)[C@@H](NC(CN(C2=C3C=CC=C2)C4=CC=C(C)C=C4C3=O)=O)CC5=CNC6=C5C=CC=C6

>  <Solvent>
DMSO Solution

>  <Batch No.>
313381

>  <Quantity>
10mM  * 50uL

>  <Pathway>
Cell Cycle/DNA Damage; Epigenetics; PI3K/Akt/mTOR

>  <Synonyms>


>  <Formula>
C34H30N4O3

>  <Research_Area>
Cancer

>  <Clinical_Information>
No Development Reported

>  <SUPPLIER>
MedChemExpress

$$$$
Untitled Document
  ChemDraw03181614392D

 12 11  0  0  0  0  0  0  0  0999 V2000
    1.7862    0.2063    0.0000 C   0  0  0  0  0  0  0  0  0  0  0  0
    1.0717   -1.0313    0.0000 N   0  0  0  0  0  0  0  0  0  0  0  0
    1.0717   -0.2063    0.0000 C   0  0  0  0  0  0  0  0  0  0  0  0
    0.3572    0.2063    0.0000 C   0  0  0  0  0  0  0  0  0  0  0  0
    1.7862    1.0313    0.0000 O   0  0  0  0  0  0  0  0  0  0  0  0
    2.5006   -0.2063    0.0000 O   0  0  0  0  0  0  0  0  0  0  0  0
   -0.3572   -0.2063    0.0000 N   0  0  0  0  0  0  0  0  0  0  0  0
   -1.0717    0.2063    0.0000 C   0  0  0  0  0  0  0  0  0  0  0  0
   -1.0717    1.0313    0.0000 O   0  0  0  0  0  0  0  0  0  0  0  0
   -1.7862   -0.2063    0.0000 C   0  0  0  0  0  0  0  0  0  0  0  0
   -1.7862   -1.0313    0.0000 O   0  0  0  0  0  0  0  0  0  0  0  0
   -2.5006    0.2063    0.0000 O   0  0  0  0  0  0  0  0  0  0  0  0
  3  2  1  1      
  1  3  1  0      
  3  4  1  0      
  1  5  2  0      
  1  6  1  0      
  8  9  2  0      
 10 11  2  0      
 10 12  1  0      
  8 10  1  0      
  7  8  1  0      
  4  7  1  0      
M  END

>  <RackCode>
HYCPK72335

>  <Cat. No.>
HY-N1477

>  <Product Name>
Dencichine

>  <ROW>
J

>  <COLUMN>
12

>  <CAS No.>
5302-45-4

>  <MWt>
176.13

>  <Target>
HIF/HIF Prolyl-Hydroxylase

>  <Saltdate>


>  <Smiles>
N[C@@H](CNC(C(O)=O)=O)C(O)=O

>  <Solvent>
DMSO Solution

>  <Batch No.>
361589

>  <Quantity>
10mM  * 50uL

>  <Pathway>
Metabolic Enzyme/Protease

>  <Synonyms>
Dencichin; ODAP

>  <Formula>
C5H8N2O5

>  <Research_Area>
Neurological Disease

>  <Clinical_Information>
No Development Reported

>  <SUPPLIER>
MedChemExpress

$$$$
Untitled Document
  ChemDraw03292416032D

 69 76  0  0  0  0  0  0  0  0999 V2000
   -7.1445   -0.2255    0.0000 C   0  0  0  0  0  0  0  0  0  0  0  0
   -7.1445   -1.0505    0.0000 C   0  0  0  0  0  0  0  0  0  0  0  0
   -6.4300   -1.4630    0.0000 N   0  0  0  0  0  0  0  0  0  0  0  0
   -5.7156   -1.0505    0.0000 C   0  0  0  0  0  0  0  0  0  0  0  0
   -5.7156   -0.2255    0.0000 C   0  0  0  0  0  0  0  0  0  0  0  0
   -6.4300    0.1870    0.0000 C   0  0  0  0  0  0  0  0  0  0  0  0
   -5.0012    0.1870    0.0000 C   0  0  0  0  0  0  0  0  0  0  0  0
   -5.0012    1.0120    0.0000 C   0  0  0  0  0  0  0  0  0  0  0  0
   -4.2867    1.4245    0.0000 O   0  0  0  0  0  0  0  0  0  0  0  0
   -5.7156    1.4245    0.0000 N   0  0  0  0  0  0  0  0  0  0  0  0
   -5.7156    2.2494    0.0000 C   0  0  0  0  0  0  0  0  0  0  0  0
   -6.4300    2.6619    0.0000 C   0  0  0  0  0  0  0  0  0  0  0  0
   -7.1445    2.2494    0.0000 C   0  0  0  0  0  0  0  0  0  0  0  0
   -7.1445    1.4245    0.0000 C   0  0  0  0  0  0  0  0  0  0  0  0
   -7.8590    2.6619    0.0000 C   0  0  0  0  0  0  0  0  0  0  0  0
   -7.8590    3.4869    0.0000 C   0  0  0  0  0  0  0  0  0  0  0  0
   -8.5734    3.8994    0.0000 C   0  0  0  0  0  0  0  0  0  0  0  0
   -7.1445    3.8994    0.0000 N   0  0  0  0  0  0  0  0  0  0  0  0
   -6.4300    3.4869    0.0000 C   0  0  0  0  0  0  0  0  0  0  0  0
   -5.7156    3.8994    0.0000 O   0  0  0  0  0  0  0  0  0  0  0  0
   -4.2867   -0.2255    0.0000 C   0  0  0  0  0  0  0  0  0  0  0  0
   -4.2867   -1.0505    0.0000 C   0  0  0  0  0  0  0  0  0  0  0  0
   -3.5723   -1.4630    0.0000 C   0  0  0  0  0  0  0  0  0  0  0  0
   -2.8578   -1.0505    0.0000 C   0  0  0  0  0  0  0  0  0  0  0  0
   -2.1433   -1.4630    0.0000 C   0  0  0  0  0  0  0  0  0  0  0  0
   -2.1433   -2.2879    0.0000 C   0  0  0  0  0  0  0  0  0  0  0  0
   -1.4289   -2.7004    0.0000 C   0  0  0  0  0  0  0  0  0  0  0  0
   -0.7145   -2.2879    0.0000 N   0  0  0  0  0  0  0  0  0  0  0  0
   -0.7145   -1.4630    0.0000 C   0  0  0  0  0  0  0  0  0  0  0  0
   -0.0000   -1.0505    0.0000 C   0  0  0  0  0  0  0  0  0  0  0  0
    0.7145   -1.4630    0.0000 N   0  0  0  0  0  0  0  0  0  0  0  0
    1.4289   -1.0505    0.0000 C   0  0  0  0  0  0  0  0  0  0  0  0
    2.1433   -1.4630    0.0000 C   0  0  0  0  0  0  0  0  0  0  0  0
    2.8578   -1.0505    0.0000 C   0  0  0  0  0  0  0  0  0  0  0  0
    3.5723   -1.4630    0.0000 C   0  0  0  0  0  0  0  0  0  0  0  0
    4.2867   -1.0505    0.0000 C   0  0  0  0  0  0  0  0  0  0  0  0
    5.0012   -1.4630    0.0000 C   0  0  0  0  0  0  0  0  0  0  0  0
    5.7156   -1.0505    0.0000 C   0  0  0  0  0  0  0  0  0  0  0  0
    6.4300   -1.4630    0.0000 O   0  0  0  0  0  0  0  0  0  0  0  0
    7.1445   -1.0505    0.0000 C   0  0  0  0  0  0  0  0  0  0  0  0
    7.1445   -0.2255    0.0000 C   0  0  0  0  0  0  0  0  0  0  0  0
    6.5314    0.3265    0.0000 C   0  0  0  0  0  0  0  0  0  0  0  0
    5.7244    0.1550    0.0000 O   0  0  0  0  0  0  0  0  0  0  0  0
    6.8670    1.0802    0.0000 N   0  0  0  0  0  0  0  0  0  0  0  0
    6.4545    1.7945    0.0000 C   0  0  0  0  0  0  0  0  0  0  0  0
    5.6295    1.7945    0.0000 C   0  0  0  0  0  0  0  0  0  0  0  0
    5.2170    2.5090    0.0000 C   0  0  0  0  0  0  0  0  0  0  0  0
    5.6295    3.2235    0.0000 C   0  0  0  0  0  0  0  0  0  0  0  0
    5.2170    3.9379    0.0000 O   0  0  0  0  0  0  0  0  0  0  0  0
    6.4545    3.2235    0.0000 N   0  0  0  0  0  0  0  0  0  0  0  0
    6.8670    2.5090    0.0000 C   0  0  0  0  0  0  0  0  0  0  0  0
    7.6920    2.5090    0.0000 O   0  0  0  0  0  0  0  0  0  0  0  0
    7.6875    0.9939    0.0000 C   0  0  0  0  0  0  0  0  0  0  0  0
    8.2395    1.6070    0.0000 O   0  0  0  0  0  0  0  0  0  0  0  0
    7.8590    0.1870    0.0000 C   0  0  0  0  0  0  0  0  0  0  0  0
    8.5734   -0.2255    0.0000 C   0  0  0  0  0  0  0  0  0  0  0  0
    8.5734   -1.0505    0.0000 C   0  0  0  0  0  0  0  0  0  0  0  0
    7.8590   -1.4630    0.0000 C   0  0  0  0  0  0  0  0  0  0  0  0
    0.7145   -2.2879    0.0000 C   0  0  0  0  0  0  0  0  0  0  0  0
   -0.0000   -2.7004    0.0000 C   0  0  0  0  0  0  0  0  0  0  0  0
   -2.8578   -2.7004    0.0000 C   0  0  0  0  0  0  0  0  0  0  0  0
   -3.5723   -2.2879    0.0000 C   0  0  0  0  0  0  0  0  0  0  0  0
   -5.0012   -1.4630    0.0000 C   0  0  0  0  0  0  0  0  0  0  0  0
   -6.4300   -2.2879    0.0000 C   0  0  0  0  0  0  0  0  0  0  0  0
   -5.7156   -2.7004    0.0000 C   0  0  0  0  0  0  0  0  0  0  0  0
   -5.7156   -3.5254    0.0000 C   0  0  0  0  0  0  0  0  0  0  0  0
   -6.4300   -3.9379    0.0000 O   0  0  0  0  0  0  0  0  0  0  0  0
   -7.1445   -3.5254    0.0000 C   0  0  0  0  0  0  0  0  0  0  0  0
   -7.1445   -2.7004    0.0000 C   0  0  0  0  0  0  0  0  0  0  0  0
  1  2  1  0      
  2  3  1  0      
  3  4  1  0      
  4  5  2  0      
  5  6  1  0      
  5  7  1  0      
  7  8  1  0      
  8  9  2  0      
  8 10  1  0      
 10 11  1  0      
 11 12  1  0      
 12 13  2  0      
 13 14  1  0      
 13 15  1  0      
 15 16  2  0      
 16 17  1  0      
 16 18  1  0      
 18 19  1  0      
 12 19  1  0      
 19 20  2  0      
  7 21  2  0      
 21 22  1  0      
 22 23  1  0      
 23 24  2  0      
 24 25  1  0      
 25 26  2  0      
 26 27  1  0      
 27 28  1  0      
 28 29  1  0      
 29 30  1  0      
 30 31  1  0      
 31 32  1  0      
 32 33  1  0      
 33 34  1  0      
 34 35  1  0      
 35 36  1  0      
 36 37  1  0      
 37 38  1  0      
 38 39  1  0      
 39 40  1  0      
 40 41  2  0      
 41 42  1  0      
 42 43  2  0      
 42 44  1  0      
 44 45  1  0      
 45 46  1  0      
 46 47  1  0      
 47 48  1  0      
 48 49  2  0      
 48 50  1  0      
 50 51  1  0      
 45 51  1  0      
 51 52  2  0      
 44 53  1  0      
 53 54  2  0      
 53 55  1  0      
 41 55  1  0      
 55 56  2  0      
 56 57  1  0      
 57 58  2  0      
 40 58  1  0      
 31 59  1  0      
 59 60  1  0      
 28 60  1  0      
 26 61  1  0      
 61 62  2  0      
 23 62  1  0      
 22 63  2  0      
  4 63  1  0      
  3 64  1  0      
 64 65  1  0      
 65 66  1  0      
 66 67  1  0      
 67 68  1  0      
 68 69  1  0      
 64 69  1  0      
M  END

>  <RackCode>
HYCPK72335

>  <Cat. No.>
HY-147525

>  <Product Name>
PROTAC EZH2 Degrader-1

>  <ROW>
K

>  <COLUMN>
12

>  <CAS No.>
2641601-67-2

>  <MWt>
942.15

>  <Target>
Histone Methyltransferase; PROTACs

>  <Saltdate>


>  <Smiles>
CCN(C1CCOCC1)C2=C(C(C(NCC3=C(C=C(NC3=O)C)C)=O)=CC(C4=CC=C(C=C4)CN5CCN(CC5)CCCCCCCOC6=C7C(N(C(C7=CC=C6)=O)C8CCC(NC8=O)=O)=O)=C2)C

>  <Solvent>
DMSO Solution

>  <Batch No.>
229360

>  <Quantity>
10mM  * 50uL

>  <Pathway>
Epigenetics; PROTAC

>  <Synonyms>


>  <Formula>
C54H67N7O8

>  <Research_Area>
Cancer

>  <Clinical_Information>
No Development Reported

>  <SUPPLIER>
MedChemExpress

$$$$
Untitled Document
  ChemDraw09302213472D

 30 34  0  0  0  0  0  0  0  0999 V2000
    1.0733   -1.1491    0.0000 C   0  0  0  0  0  0  0  0  0  0  0  0
    0.2764   -1.3627    0.0000 C   0  0  0  0  0  0  0  0  0  0  0  0
    1.2868   -0.3522    0.0000 O   0  0  0  0  0  0  0  0  0  0  0  0
    1.6566   -1.7325    0.0000 N   0  0  0  0  0  0  0  0  0  0  0  0
    2.7492   -0.7488    0.0000 S   0  0  0  0  0  0  0  0  0  0  0  0
    2.4535   -1.5190    0.0000 C   0  0  0  0  0  0  0  0  0  0  0  0
    3.0947   -2.0382    0.0000 N   0  0  0  0  0  0  0  0  0  0  0  0
    3.7866   -1.5888    0.0000 C   0  0  0  0  0  0  0  0  0  0  0  0
    3.5731   -0.7919    0.0000 C   0  0  0  0  0  0  0  0  0  0  0  0
    4.5835   -1.8024    0.0000 C   0  0  0  0  0  0  0  0  0  0  0  0
    5.1668   -1.2190    0.0000 C   0  0  0  0  0  0  0  0  0  0  0  0
    4.9533   -0.4221    0.0000 C   0  0  0  0  0  0  0  0  0  0  0  0
    4.1564   -0.2086    0.0000 C   0  0  0  0  0  0  0  0  0  0  0  0
   -0.3070   -0.7793    0.0000 S   0  0  0  0  0  0  0  0  0  0  0  0
   -3.1404   -0.0243    0.0000 N   0  0  0  0  0  0  0  0  0  0  0  0
   -2.4729   -0.5093    0.0000 C   0  0  0  0  0  0  0  0  0  0  0  0
   -2.7279   -1.2939    0.0000 C   0  0  0  0  0  0  0  0  0  0  0  0
   -3.5529   -1.2939    0.0000 C   0  0  0  0  0  0  0  0  0  0  0  0
   -4.1049   -1.9070    0.0000 C   0  0  0  0  0  0  0  0  0  0  0  0
   -4.9119   -1.7354    0.0000 C   0  0  0  0  0  0  0  0  0  0  0  0
   -5.1668   -0.9508    0.0000 C   0  0  0  0  0  0  0  0  0  0  0  0
   -4.6148   -0.3377    0.0000 C   0  0  0  0  0  0  0  0  0  0  0  0
   -3.8078   -0.5093    0.0000 C   0  0  0  0  0  0  0  0  0  0  0  0
   -2.1759   -1.9070    0.0000 N   0  0  0  0  0  0  0  0  0  0  0  0
   -1.3689   -1.7354    0.0000 N   0  0  0  0  0  0  0  0  0  0  0  0
   -1.1139   -0.9508    0.0000 C   0  0  0  0  0  0  0  0  0  0  0  0
   -1.6660   -0.3377    0.0000 N   0  0  0  0  0  0  0  0  0  0  0  0
   -3.1404    0.8007    0.0000 C   0  0  0  0  0  0  0  0  0  0  0  0
   -3.8549    1.2132    0.0000 C   0  0  0  0  0  0  0  0  0  0  0  0
   -3.8549    2.0382    0.0000 C   0  0  0  0  0  0  0  0  0  0  0  0
  1  2  1  0      
  1  3  2  0      
  1  4  1  0      
  5  6  1  0      
  6  7  2  0      
  7  8  1  0      
  8  9  2  0      
  5  9  1  0      
 10 11  1  0      
 11 12  1  0      
 12 13  1  0      
 13  9  1  0      
 10  8  1  0      
  4  6  1  0      
 15 16  1  0      
 16 17  1  0      
 17 18  1  0      
 18 19  1  0      
 19 20  2  0      
 20 21  1  0      
 21 22  2  0      
 22 23  1  0      
 15 23  1  0      
 18 23  2  0      
 24 25  1  0      
 25 26  2  0      
 26 27  1  0      
 27 16  2  0      
 24 17  2  0      
 28 29  1  0      
 29 30  1  0      
 15 28  1  0      
 14 26  1  0      
  2 14  1  0      
M  END

>  <RackCode>
HYCPK72335

>  <Cat. No.>
HY-151519

>  <Product Name>
SIRT2-IN-9

>  <ROW>
L

>  <COLUMN>
12

>  <CAS No.>
522650-91-5

>  <MWt>
438.57

>  <Target>
Sirtuin

>  <Saltdate>


>  <Smiles>
O=C(NC1=NC(CCCC2)=C2S1)CSC3=NN=C4C(N(CCC)C5=C4C=CC=C5)=N3

>  <Solvent>
DMSO Solution

>  <Batch No.>
230739

>  <Quantity>
10mM  * 50uL

>  <Pathway>
Cell Cycle/DNA Damage; Epigenetics

>  <Synonyms>


>  <Formula>
C21H22N6OS2

>  <Research_Area>
Cancer

>  <Clinical_Information>
No Development Reported

>  <SUPPLIER>
MedChemExpress

$$$$
Untitled Document
  ChemDraw10271712452D

 28 30  0  0  0  0  0  0  0  0999 V2000
   -2.4210   -1.0313    0.0000 C   0  0  0  0  0  0  0  0  0  0  0  0
   -1.7065   -1.4438    0.0000 C   0  0  0  0  0  0  0  0  0  0  0  0
   -0.9920   -1.0313    0.0000 C   0  0  0  0  0  0  0  0  0  0  0  0
   -0.2775   -1.4438    0.0000 C   0  0  0  0  0  0  0  0  0  0  0  0
   -0.2775   -2.2688    0.0000 C   0  0  0  0  0  0  0  0  0  0  0  0
   -0.9920   -2.6813    0.0000 C   0  0  0  0  0  0  0  0  0  0  0  0
   -1.7065   -2.2688    0.0000 C   0  0  0  0  0  0  0  0  0  0  0  0
   -3.1354   -0.6187    0.0000 N   0  0  0  0  0  0  0  0  0  0  0  0
   -0.9920   -3.5063    0.0000 F   0  0  0  0  0  0  0  0  0  0  0  0
    0.4369   -1.0313    0.0000 O   0  0  0  0  0  0  0  0  0  0  0  0
    1.9360    1.2862    0.0000 C   0  0  0  0  0  0  0  0  0  0  0  0
    2.4210    0.6187    0.0000 C   0  0  0  0  0  0  0  0  0  0  0  0
    1.9360   -0.0487    0.0000 C   0  0  0  0  0  0  0  0  0  0  0  0
    1.1514    0.2062    0.0000 C   0  0  0  0  0  0  0  0  0  0  0  0
    0.4369   -0.2062    0.0000 C   0  0  0  0  0  0  0  0  0  0  0  0
   -0.2775    0.2062    0.0000 C   0  0  0  0  0  0  0  0  0  0  0  0
   -0.2775    1.0313    0.0000 C   0  0  0  0  0  0  0  0  0  0  0  0
    0.4369    1.4438    0.0000 C   0  0  0  0  0  0  0  0  0  0  0  0
    1.1514    1.0313    0.0000 C   0  0  0  0  0  0  0  0  0  0  0  0
    2.1910    2.0708    0.0000 O   0  0  0  0  0  0  0  0  0  0  0  0
    3.1354    0.2062    0.0000 F   0  0  0  0  0  0  0  0  0  0  0  0
    3.1354    1.0313    0.0000 F   0  0  0  0  0  0  0  0  0  0  0  0
    0.4369    2.2688    0.0000 S   0  0  0  0  0  0  0  0  0  0  0  0
    1.2619    2.2688    0.0000 O   0  0  0  0  0  0  0  0  0  0  0  0
   -0.3881    2.2688    0.0000 O   0  0  0  0  0  0  0  0  0  0  0  0
    0.4369    3.0938    0.0000 C   0  0  0  0  0  0  0  0  0  0  0  0
   -0.2775    3.5063    0.0000 F   0  0  0  0  0  0  0  0  0  0  0  0
    1.1514    3.5063    0.0000 F   0  0  0  0  0  0  0  0  0  0  0  0
  1  2  1  0      
  2  3  1  0      
  3  4  2  0      
  4  5  1  0      
  5  6  2  0      
  6  7  1  0      
  2  7  2  0      
  1  8  3  0      
  6  9  1  0      
 11 12  1  0      
 12 13  1  0      
 13 14  1  0      
 14 15  1  0      
 15 16  2  0      
 16 17  1  0      
 17 18  2  0      
 18 19  1  0      
 11 19  1  0      
 14 19  2  0      
 11 20  1  6      
 12 21  1  0      
 12 22  1  0      
 23 24  2  0      
 23 25  2  0      
 26 27  1  0      
 26 28  1  0      
 23 26  1  0      
 18 23  1  0      
 10 15  1  0      
  4 10  1  0      
M  END

>  <RackCode>
HYCPK72335

>  <Cat. No.>
HY-108697

>  <Product Name>
PT2399

>  <ROW>
M

>  <COLUMN>
12

>  <CAS No.>
1672662-14-4

>  <MWt>
419.32

>  <Target>
HIF/HIF Prolyl-Hydroxylase

>  <Saltdate>
Free Base

>  <Smiles>
N#CC1=CC(F)=CC(OC2=CC=C(S(=O)(C(F)F)=O)C3=C2CC(F)(F)[C@H]3O)=C1

>  <Solvent>
DMSO Solution

>  <Batch No.>
245825

>  <Quantity>
10mM  * 50uL

>  <Pathway>
Metabolic Enzyme/Protease

>  <Synonyms>


>  <Formula>
C17H10F5NO4S

>  <Research_Area>
Cancer

>  <Clinical_Information>
No Development Reported

>  <SUPPLIER>
MedChemExpress

$$$$
Untitled Document
  ChemDraw06202211092D

 42 40  0  0  0  0  0  0  0  0999 V2000
    1.0614    0.4125    0.0000 O   0  0  0  0  0  0  0  0  0  0  0  0
    1.0614   -0.4125    0.0000 C   0  0  0  0  0  0  0  0  0  0  0  0
    1.7759   -0.8250    0.0000 O   0  0  0  0  0  0  0  0  0  0  0  0
    2.4903   -0.4125    0.0000 C   0  0  0  0  0  0  0  0  0  0  0  0
    3.2048   -0.8250    0.0000 C   0  0  0  0  0  0  0  0  0  0  0  0
    3.9193   -0.4125    0.0000 C   0  0  0  0  0  0  0  0  0  0  0  0
    3.9193    0.4125    0.0000 C   0  0  0  0  0  0  0  0  0  0  0  0
    4.6337    0.8250    0.0000 O   0  0  0  0  0  0  0  0  0  0  0  0
    5.3482    0.4125    0.0000 C   0  0  0  0  0  0  0  0  0  0  0  0
    5.3482   -0.4125    0.0000 C   0  0  0  0  0  0  0  0  0  0  0  0
    6.0627    0.8250    0.0000 C   0  0  0  0  0  0  0  0  0  0  0  0
    3.2048    0.8250    0.0000 C   0  0  0  0  0  0  0  0  0  0  0  0
    2.4903    0.4125    0.0000 C   0  0  0  0  0  0  0  0  0  0  0  0
    1.7759    0.8250    0.0000 O   0  0  0  0  0  0  0  0  0  0  0  0
    1.7759    1.6500    0.0000 C   0  0  0  0  0  0  0  0  0  0  0  0
    2.4903    2.0625    0.0000 C   0  0  0  0  0  0  0  0  0  0  0  0
    1.0614    2.0625    0.0000 C   0  0  0  0  0  0  0  0  0  0  0  0
    0.3469   -0.8250    0.0000 C   0  0  0  0  0  0  0  0  0  0  0  0
    0.3469   -1.6500    0.0000 C   0  0  0  0  0  0  0  0  0  0  0  0
   -0.3676   -2.0625    0.0000 C   0  0  0  0  0  0  0  0  0  0  0  0
   -1.0820   -1.6500    0.0000 N   0  0  0  0  0  0  0  0  0  0  0  0
   -1.0820   -0.8250    0.0000 C   0  0  0  0  0  0  0  0  0  0  0  0
   -0.3676   -0.4125    0.0000 C   0  0  0  0  0  0  0  0  0  0  0  0
   -1.7965   -0.4125    0.0000 C   0  0  0  0  0  0  0  0  0  0  0  0
   -2.5110   -0.8250    0.0000 N   0  0  0  0  0  0  0  0  0  0  0  0
   -3.2254   -0.4125    0.0000 C   0  0  0  0  0  0  0  0  0  0  0  0
   -3.9399   -0.8250    0.0000 C   0  0  0  0  0  0  0  0  0  0  0  0
   -3.9399   -1.6500    0.0000 O   0  0  0  0  0  0  0  0  0  0  0  0
   -4.6544   -0.4125    0.0000 N   0  0  0  0  0  0  0  0  0  0  0  0
   -4.6544    0.4125    0.0000 C   0  0  0  0  0  0  0  0  0  0  0  0
   -5.3689    0.8250    0.0000 C   0  0  0  0  0  0  0  0  0  0  0  0
   -5.3689   -0.8250    0.0000 C   0  0  0  0  0  0  0  0  0  0  0  0
   -6.0833   -0.4125    0.0000 C   0  0  0  0  0  0  0  0  0  0  0  0
   -6.7978   -0.8250    0.0000 N   0  0  0  0  0  0  0  0  0  0  0  0
   -7.5123   -0.4125    0.0000 C   0  0  0  0  0  0  0  0  0  0  0  0
   -6.7978   -1.6500    0.0000 C   0  0  0  0  0  0  0  0  0  0  0  0
    6.6873    0.7065    0.0000 H   0  0  0  0  0  0  0  0  0  0  0  0
    7.5123    0.7065    0.0000 Cl  0  0  0  0  0  0  0  0  0  0  0  0
    6.6873   -0.2818    0.0000 H   0  0  0  0  0  0  0  0  0  0  0  0
    7.5123   -0.2818    0.0000 Cl  0  0  0  0  0  0  0  0  0  0  0  0
    6.6873   -1.3130    0.0000 H   0  0  0  0  0  0  0  0  0  0  0  0
    7.5123   -1.3130    0.0000 Cl  0  0  0  0  0  0  0  0  0  0  0  0
  1  2  2  0      
  2  3  1  0      
  3  4  1  0      
  4  5  2  0      
  5  6  1  0      
  6  7  2  0      
  7  8  1  0      
  8  9  1  0      
  9 10  1  0      
  9 11  1  0      
  7 12  1  0      
 12 13  2  0      
  4 13  1  0      
 13 14  1  0      
 14 15  1  0      
 15 16  1  0      
 15 17  1  0      
  2 18  1  0      
 18 19  1  0      
 19 20  2  0      
 20 21  1  0      
 21 22  2  0      
 22 23  1  0      
 18 23  2  0      
 22 24  1  0      
 24 25  1  0      
 25 26  1  0      
 26 27  1  0      
 27 28  2  0      
 27 29  1  0      
 29 30  1  0      
 30 31  1  0      
 29 32  1  0      
 32 33  1  0      
 33 34  1  0      
 34 35  1  0      
 34 36  1  0      
 37 38  1  0      
 39 40  1  0      
 41 42  1  0      
M  END

>  <RackCode>
HYCPK72335

>  <Cat. No.>
HY-138691A

>  <Product Name>
JQKD82 (trihydrochloride)

>  <ROW>
N

>  <COLUMN>
12

>  <CAS No.>
2863676-87-1

>  <MWt>
610.01

>  <Target>
Histone Demethylase

>  <Saltdate>
Hydrochloride

>  <Smiles>
O=C(C1=CC(CNCC(N(CCN(C)C)CC)=O)=NC=C1)OC2=CC=C(C=C2OC(C)C)OC(C)C.[H]Cl.[H]Cl.[H]Cl

>  <Solvent>
DMSO Solution

>  <Batch No.>
155926

>  <Quantity>
10mM  * 50uL

>  <Pathway>
Epigenetics

>  <Synonyms>
JADA82 (trihydrochloride); PCK82 (trihydrochloride)

>  <Formula>
C27H43Cl3N4O5

>  <Research_Area>
Cancer

>  <Clinical_Information>
No Development Reported

>  <SUPPLIER>
MedChemExpress

$$$$
Untitled Document
  ChemDraw11162218002D

 38 42  0  0  0  0  0  0  0  0999 V2000
   -1.8552    1.4949    0.0000 O   0  0  0  0  0  0  0  0  0  0  0  0
   -1.4427    0.7804    0.0000 C   0  0  0  0  0  0  0  0  0  0  0  0
   -1.8552    0.0660    0.0000 O   0  0  0  0  0  0  0  0  0  0  0  0
   -2.6802    0.0660    0.0000 C   0  0  0  0  0  0  0  0  0  0  0  0
   -0.6177    0.7804    0.0000 C   0  0  0  0  0  0  0  0  0  0  0  0
   -0.1328    1.4479    0.0000 C   0  0  0  0  0  0  0  0  0  0  0  0
    0.6518    1.1929    0.0000 C   0  0  0  0  0  0  0  0  0  0  0  0
    1.3663    1.6054    0.0000 C   0  0  0  0  0  0  0  0  0  0  0  0
    1.5378    2.4124    0.0000 C   0  0  0  0  0  0  0  0  0  0  0  0
    2.3583    2.4986    0.0000 C   0  0  0  0  0  0  0  0  0  0  0  0
    2.6938    1.7450    0.0000 N   0  0  0  0  0  0  0  0  0  0  0  0
    2.0808    1.1929    0.0000 C   0  0  0  0  0  0  0  0  0  0  0  0
    2.0808    0.3679    0.0000 C   0  0  0  0  0  0  0  0  0  0  0  0
    2.7952   -0.0446    0.0000 O   0  0  0  0  0  0  0  0  0  0  0  0
    1.3663   -0.0446    0.0000 C   0  0  0  0  0  0  0  0  0  0  0  0
    1.3663   -0.8696    0.0000 O   0  0  0  0  0  0  0  0  0  0  0  0
    0.6518    0.3679    0.0000 C   0  0  0  0  0  0  0  0  0  0  0  0
   -0.1328    0.1130    0.0000 N   0  0  0  0  0  0  0  0  0  0  0  0
   -0.3877   -0.6716    0.0000 S   0  0  0  0  0  0  0  0  0  0  0  0
   -1.1724   -0.4167    0.0000 O   0  0  0  0  0  0  0  0  0  0  0  0
    0.3969   -0.9266    0.0000 O   0  0  0  0  0  0  0  0  0  0  0  0
   -0.6427   -1.4563    0.0000 C   0  0  0  0  0  0  0  0  0  0  0  0
   -0.0907   -2.0693    0.0000 C   0  0  0  0  0  0  0  0  0  0  0  0
   -0.3456   -2.8540    0.0000 C   0  0  0  0  0  0  0  0  0  0  0  0
   -1.1526   -3.0255    0.0000 C   0  0  0  0  0  0  0  0  0  0  0  0
   -1.4075   -3.8101    0.0000 Cl  0  0  0  0  0  0  0  0  0  0  0  0
   -1.7046   -2.4124    0.0000 C   0  0  0  0  0  0  0  0  0  0  0  0
   -1.4497   -1.6278    0.0000 C   0  0  0  0  0  0  0  0  0  0  0  0
    0.9858    3.0255    0.0000 C   0  0  0  0  0  0  0  0  0  0  0  0
    1.2407    3.8101    0.0000 O   0  0  0  0  0  0  0  0  0  0  0  0
    0.1788    2.8540    0.0000 O   0  0  0  0  0  0  0  0  0  0  0  0
   -0.4046    3.4373    0.0000 C   0  0  0  0  0  0  0  0  0  0  0  0
   -1.2014    3.2238    0.0000 C   0  0  0  0  0  0  0  0  0  0  0  0
   -1.4150    2.4269    0.0000 C   0  0  0  0  0  0  0  0  0  0  0  0
   -2.2119    2.2134    0.0000 C   0  0  0  0  0  0  0  0  0  0  0  0
   -2.7952    2.7968    0.0000 C   0  0  0  0  0  0  0  0  0  0  0  0
   -2.5817    3.5936    0.0000 C   0  0  0  0  0  0  0  0  0  0  0  0
   -1.7848    3.8072    0.0000 C   0  0  0  0  0  0  0  0  0  0  0  0
  1  2  2  0      
  2  3  1  0      
  3  4  1  0      
  2  5  1  0      
  5  6  2  0      
  6  7  1  0      
  7  8  1  0      
  8  9  1  0      
  9 10  2  0      
 10 11  1  0      
 11 12  1  0      
  8 12  2  0      
 12 13  1  0      
 13 14  2  0      
 13 15  1  0      
 15 16  2  0      
 15 17  1  0      
  7 17  2  0      
 17 18  1  0      
  5 18  1  0      
 18 19  1  0      
 19 20  2  0      
 19 21  2  0      
 19 22  1  0      
 22 23  2  0      
 23 24  1  0      
 24 25  2  0      
 25 26  1  0      
 25 27  1  0      
 27 28  2  0      
 22 28  1  0      
  9 29  1  0      
 29 30  2  0      
 29 31  1  0      
 31 32  1  0      
 32 33  1  0      
 33 34  1  0      
 34 35  2  0      
 35 36  1  0      
 36 37  2  0      
 37 38  1  0      
 33 38  2  0      
M  END

>  <RackCode>
HYCPK72335

>  <Cat. No.>
HY-150190

>  <Product Name>
F5446

>  <ROW>
O

>  <COLUMN>
12

>  <CAS No.>
2304465-89-0

>  <MWt>
552.94

>  <Target>
Histone Methyltransferase

>  <Saltdate>


>  <Smiles>
O=C(C1=CC(C2=C(C3=O)NC=C2C(OCC4=CC=CC=C4)=O)=C(N1S(=O)(C5=CC=C(C=C5)Cl)=O)C3=O)OC

>  <Solvent>
DMSO Solution

>  <Batch No.>
318828

>  <Quantity>
10mM  * 50uL

>  <Pathway>
Epigenetics

>  <Synonyms>


>  <Formula>
C26H17ClN2O8S

>  <Research_Area>
Cancer

>  <Clinical_Information>
No Development Reported

>  <SUPPLIER>
MedChemExpress

$$$$
Untitled Document
  ChemDraw11261812542D

 31 34  0  0  0  0  0  0  0  0999 V2000
   -2.0393    0.8838    0.0000 C   0  0  0  0  0  0  0  0  0  0  0  0
   -2.0393    1.7088    0.0000 O   0  0  0  0  0  0  0  0  0  0  0  0
    1.3737    0.0588    0.0000 C   0  0  0  0  0  0  0  0  0  0  0  0
    0.8888   -0.6086    0.0000 N   0  0  0  0  0  0  0  0  0  0  0  0
    0.1041   -0.3537    0.0000 C   0  0  0  0  0  0  0  0  0  0  0  0
    0.1041    0.4713    0.0000 C   0  0  0  0  0  0  0  0  0  0  0  0
    0.8888    0.7263    0.0000 N   0  0  0  0  0  0  0  0  0  0  0  0
   -0.6103   -0.7662    0.0000 C   0  0  0  0  0  0  0  0  0  0  0  0
   -1.3248   -0.3537    0.0000 C   0  0  0  0  0  0  0  0  0  0  0  0
   -1.3248    0.4713    0.0000 C   0  0  0  0  0  0  0  0  0  0  0  0
   -0.6103    0.8838    0.0000 C   0  0  0  0  0  0  0  0  0  0  0  0
    1.1437    1.5109    0.0000 C   0  0  0  0  0  0  0  0  0  0  0  0
    2.6836   -0.6086    0.0000 N   0  0  0  0  0  0  0  0  0  0  0  0
    2.1987    0.0588    0.0000 C   0  0  0  0  0  0  0  0  0  0  0  0
    2.6836    0.7263    0.0000 C   0  0  0  0  0  0  0  0  0  0  0  0
    3.4682    0.4713    0.0000 C   0  0  0  0  0  0  0  0  0  0  0  0
    4.1827    0.8838    0.0000 C   0  0  0  0  0  0  0  0  0  0  0  0
    4.8972    0.4713    0.0000 C   0  0  0  0  0  0  0  0  0  0  0  0
    4.8972   -0.3537    0.0000 C   0  0  0  0  0  0  0  0  0  0  0  0
    4.1827   -0.7662    0.0000 C   0  0  0  0  0  0  0  0  0  0  0  0
    3.4682   -0.3537    0.0000 C   0  0  0  0  0  0  0  0  0  0  0  0
    2.4287   -1.3932    0.0000 C   0  0  0  0  0  0  0  0  0  0  0  0
    1.6217   -1.5648    0.0000 C   0  0  0  0  0  0  0  0  0  0  0  0
   -2.7538    0.4713    0.0000 N   0  0  0  0  0  0  0  0  0  0  0  0
   -3.4682    0.8838    0.0000 C   0  0  0  0  0  0  0  0  0  0  0  0
   -4.1827    0.4713    0.0000 C   0  0  0  0  0  0  0  0  0  0  0  0
   -4.1827   -0.3537    0.0000 C   0  0  0  0  0  0  0  0  0  0  0  0
   -3.4682   -0.7662    0.0000 C   0  0  0  0  0  0  0  0  0  0  0  0
   -2.7538   -0.3537    0.0000 C   0  0  0  0  0  0  0  0  0  0  0  0
   -4.8972    0.8838    0.0000 N   0  0  0  0  0  0  0  0  0  0  0  0
   -0.8014   -1.7088    0.0000 Cl  0  0  0  0  0  0  0  0  0  0  0  0
  1  2  2  0      
  3  4  2  0      
  4  5  1  0      
  5  6  1  0      
  6  7  1  0      
  3  7  1  0      
  8  9  1  0      
  9 10  2  0      
 10 11  1  0      
  6 11  2  0      
  5  8  2  0      
  7 12  1  0      
 13 14  1  0      
 14 15  2  0      
 15 16  1  0      
 16 17  1  0      
 17 18  2  0      
 18 19  1  0      
 19 20  2  0      
 20 21  1  0      
 13 21  1  0      
 16 21  2  0      
 22 23  1  0      
 13 22  1  0      
  3 14  1  0      
  1 10  1  0      
 24 25  1  0      
 25 26  1  0      
 26 27  1  0      
 27 28  1  0      
 28 29  1  0      
 24 29  1  0      
 26 30  1  0      
  1 24  1  0      
M  END

>  <RackCode>
HYCPK72335

>  <Cat. No.>
HY-120343

>  <Product Name>
GSK106

>  <ROW>
P

>  <COLUMN>
12

>  <CAS No.>
1652591-82-6

>  <MWt>
437.97

>  <Target>
Protein Arginine Deiminase

>  <Saltdate>
Hydrochloride

>  <Smiles>
O=C(N1CC(N)CCC1)C2=CC=C3N=C(C(N4CC)=CC5=C4C=CC=C5)N(C)C3=C2.Cl

>  <Solvent>
DMSO Solution

>  <Batch No.>
248856

>  <Quantity>
10mM  * 50uL

>  <Pathway>
Epigenetics

>  <Synonyms>


>  <Formula>
C24H28ClN5O

>  <Research_Area>
Cancer; Inflammation/Immunology; Cardiovascular Disease

>  <Clinical_Information>
No Development Reported

>  <SUPPLIER>
MedChemExpress

$$$$
Untitled Document
  ChemDraw01091816512D

 41 45  0  0  0  0  0  0  0  0999 V2000
   -1.9366   -0.5674    0.0000 C   0  0  0  0  0  0  0  0  0  0  0  0
   -1.9366   -1.3924    0.0000 C   0  0  0  0  0  0  0  0  0  0  0  0
   -1.2222   -1.8049    0.0000 C   0  0  0  0  0  0  0  0  0  0  0  0
   -0.5077   -1.3924    0.0000 C   0  0  0  0  0  0  0  0  0  0  0  0
   -0.5077   -0.5674    0.0000 C   0  0  0  0  0  0  0  0  0  0  0  0
   -1.2222   -0.1549    0.0000 C   0  0  0  0  0  0  0  0  0  0  0  0
   -2.6486   -0.1564    0.0000 O   0  0  0  0  0  0  0  0  0  0  0  0
   -3.3606   -0.5674    0.0000 C   0  0  0  0  0  0  0  0  0  0  0  0
   -4.0726   -0.1564    0.0000 C   0  0  0  0  0  0  0  0  0  0  0  0
   -4.7846   -0.5674    0.0000 C   0  0  0  0  0  0  0  0  0  0  0  0
   -5.4966   -0.1564    0.0000 N   0  0  0  0  0  0  0  0  0  0  0  0
   -6.2086   -0.5674    0.0000 C   0  0  0  0  0  0  0  0  0  0  0  0
    0.2043   -1.8035    0.0000 Cl  0  0  0  0  0  0  0  0  0  0  0  0
    0.2043   -0.1564    0.0000 C   0  0  0  0  0  0  0  0  0  0  0  0
    0.9188   -0.5689    0.0000 N   0  0  0  0  0  0  0  0  0  0  0  0
    1.6332   -0.1564    0.0000 C   0  0  0  0  0  0  0  0  0  0  0  0
    1.6332    0.6686    0.0000 C   0  0  0  0  0  0  0  0  0  0  0  0
    0.9188    1.0811    0.0000 C   0  0  0  0  0  0  0  0  0  0  0  0
    0.2043    0.6686    0.0000 N   0  0  0  0  0  0  0  0  0  0  0  0
    0.9188    1.9033    0.0000 C   0  0  0  0  0  0  0  0  0  0  0  0
    2.3452    1.0797    0.0000 C   0  0  0  0  0  0  0  0  0  0  0  0
    1.6332    2.3158    0.0000 C   0  0  0  0  0  0  0  0  0  0  0  0
    2.3477    1.9033    0.0000 C   0  0  0  0  0  0  0  0  0  0  0  0
    1.4617    3.1228    0.0000 N   0  0  0  0  0  0  0  0  0  0  0  0
    0.6412    3.2090    0.0000 O   0  0  0  0  0  0  0  0  0  0  0  0
    0.3057    2.4553    0.0000 C   0  0  0  0  0  0  0  0  0  0  0  0
   -0.4985    2.2844    0.0000 C   0  0  0  0  0  0  0  0  0  0  0  0
    2.3452   -0.5674    0.0000 N   0  0  0  0  0  0  0  0  0  0  0  0
    2.5588   -1.3643    0.0000 C   0  0  0  0  0  0  0  0  0  0  0  0
    3.3557   -1.1508    0.0000 C   0  0  0  0  0  0  0  0  0  0  0  0
    3.1421   -0.3539    0.0000 C   0  0  0  0  0  0  0  0  0  0  0  0
    3.3557   -1.9758    0.0000 C   0  0  0  0  0  0  0  0  0  0  0  0
    4.0701   -2.3883    0.0000 C   0  0  0  0  0  0  0  0  0  0  0  0
    4.7846   -1.9758    0.0000 N   0  0  0  0  0  0  0  0  0  0  0  0
    4.7846   -1.1508    0.0000 C   0  0  0  0  0  0  0  0  0  0  0  0
    4.0701   -0.7383    0.0000 C   0  0  0  0  0  0  0  0  0  0  0  0
    5.4966   -2.3869    0.0000 C   0  0  0  0  0  0  0  0  0  0  0  0
    5.4966   -3.2090    0.0000 O   0  0  0  0  0  0  0  0  0  0  0  0
    6.2086   -1.9758    0.0000 O   0  0  0  0  0  0  0  0  0  0  0  0
    6.2086   -1.1537    0.0000 C   0  0  0  0  0  0  0  0  0  0  0  0
   -4.0726    0.6658    0.0000 O   0  0  0  0  0  0  0  0  0  0  0  0
  1  2  2  0      
  2  3  1  0      
  3  4  2  0      
  4  5  1  0      
  5  6  2  0      
  6  1  1  0      
  1  7  1  0      
  7  8  1  0      
  8  9  1  0      
  9 10  1  0      
 10 11  1  0      
 11 12  1  0      
  4 13  1  0      
  5 14  1  0      
 14 15  2  0      
 15 16  1  0      
 16 17  2  0      
 17 18  1  0      
 18 19  2  0      
 19 14  1  0      
 18 20  1  0      
 17 21  1  0      
 20 22  1  0      
 22 23  1  0      
 22 24  2  0      
 24 25  1  0      
 25 26  1  0      
 26 20  2  0      
 26 27  1  0      
 16 28  1  0      
 28 29  1  0      
 29 30  1  0      
 30 31  1  0      
 31 28  1  0      
 30 32  1  0      
 32 33  1  0      
 33 34  1  0      
 34 35  1  0      
 35 36  1  0      
 36 30  1  0      
 34 37  1  0      
 37 38  2  0      
 37 39  1  0      
 39 40  1  0      
  9 41  1  1      
M  END

>  <RackCode>
HYCPK72335

>  <Cat. No.>
HY-111109

>  <Product Name>
EZM 2302

>  <ROW>
A

>  <COLUMN>
13

>  <CAS No.>
1628830-21-6

>  <MWt>
585.09

>  <Target>
Histone Methyltransferase

>  <Saltdate>
Free Base

>  <Smiles>
CNC[C@@H](O)COC1=CC=C(Cl)C(C2=NC(N3CC4(CCN(C(OC)=O)CC4)C3)=C(C)C(C5=C(C)ON=C5C)=N2)=C1

>  <Solvent>
DMSO Solution

>  <Batch No.>
120317

>  <Quantity>
10mM  * 50uL

>  <Pathway>
Epigenetics

>  <Synonyms>


>  <Formula>
C29H37ClN6O5

>  <Research_Area>
Cancer

>  <Clinical_Information>
No Development Reported

>  <SUPPLIER>
MedChemExpress

$$$$
Untitled Document
  ChemDraw08301616542D

 40 44  0  0  0  0  0  0  0  0999 V2000
   -2.8579    3.3000    0.0000 C   0  0  0  0  0  0  0  0  0  0  0  0
   -2.8579    2.4750    0.0000 C   0  0  0  0  0  0  0  0  0  0  0  0
   -2.1434    2.0625    0.0000 C   0  0  0  0  0  0  0  0  0  0  0  0
   -1.4289    2.4750    0.0000 C   0  0  0  0  0  0  0  0  0  0  0  0
   -1.4289    3.3000    0.0000 C   0  0  0  0  0  0  0  0  0  0  0  0
   -2.1434    3.7125    0.0000 C   0  0  0  0  0  0  0  0  0  0  0  0
   -0.7145    3.7125    0.0000 C   0  0  0  0  0  0  0  0  0  0  0  0
   -0.0000    3.3000    0.0000 N   0  0  0  0  0  0  0  0  0  0  0  0
   -0.0000    2.4750    0.0000 C   0  0  0  0  0  0  0  0  0  0  0  0
    0.7145    2.0625    0.0000 C   0  0  0  0  0  0  0  0  0  0  0  0
    1.4289    2.4750    0.0000 O   0  0  0  0  0  0  0  0  0  0  0  0
    1.4289    3.3000    0.0000 C   0  0  0  0  0  0  0  0  0  0  0  0
    0.7145    3.7125    0.0000 C   0  0  0  0  0  0  0  0  0  0  0  0
   -2.1434    1.2375    0.0000 C   0  0  0  0  0  0  0  0  0  0  0  0
   -2.8579    0.8250    0.0000 C   0  0  0  0  0  0  0  0  0  0  0  0
   -2.8579    0.0000    0.0000 C   0  0  0  0  0  0  0  0  0  0  0  0
   -2.1434   -0.4125    0.0000 C   0  0  0  0  0  0  0  0  0  0  0  0
   -1.4289    0.0000    0.0000 C   0  0  0  0  0  0  0  0  0  0  0  0
   -1.4289    0.8250    0.0000 C   0  0  0  0  0  0  0  0  0  0  0  0
   -2.1434   -1.2375    0.0000 N   0  0  0  0  0  0  0  0  0  0  0  0
   -2.8579   -1.6500    0.0000 C   0  0  0  0  0  0  0  0  0  0  0  0
   -2.8579   -2.4750    0.0000 C   0  0  0  0  0  0  0  0  0  0  0  0
   -2.1434   -2.8875    0.0000 N   0  0  0  0  0  0  0  0  0  0  0  0
   -1.4289   -2.4750    0.0000 C   0  0  0  0  0  0  0  0  0  0  0  0
   -1.4289   -1.6500    0.0000 C   0  0  0  0  0  0  0  0  0  0  0  0
   -0.7145   -0.4125    0.0000 N   0  0  0  0  0  0  0  0  0  0  0  0
   -0.0000    0.0000    0.0000 C   0  0  0  0  0  0  0  0  0  0  0  0
    0.7145   -0.4125    0.0000 C   0  0  0  0  0  0  0  0  0  0  0  0
   -0.0000    0.8250    0.0000 O   0  0  0  0  0  0  0  0  0  0  0  0
    0.7145   -1.2375    0.0000 C   0  0  0  0  0  0  0  0  0  0  0  0
    1.4289   -1.6500    0.0000 N   0  0  0  0  0  0  0  0  0  0  0  0
    2.1434   -1.2375    0.0000 C   0  0  0  0  0  0  0  0  0  0  0  0
    2.1434   -0.4125    0.0000 C   0  0  0  0  0  0  0  0  0  0  0  0
    1.4289    0.0000    0.0000 C   0  0  0  0  0  0  0  0  0  0  0  0
   -2.1434   -3.7125    0.0000 C   0  0  0  0  0  0  0  0  0  0  0  0
    2.8579   -1.6500    0.0000 O   0  0  0  0  0  0  0  0  0  0  0  0
    1.4289    0.8250    0.0000 C   0  0  0  0  0  0  0  0  0  0  0  0
    2.1434    1.2375    0.0000 F   0  0  0  0  0  0  0  0  0  0  0  0
    1.4289    1.6500    0.0000 F   0  0  0  0  0  0  0  0  0  0  0  0
    0.7145    1.2375    0.0000 F   0  0  0  0  0  0  0  0  0  0  0  0
  1  2  2  0      
  2  3  1  0      
  3  4  2  0      
  4  5  1  0      
  5  6  2  0      
  6  1  1  0      
  5  7  1  0      
  7  8  1  0      
  8  9  1  0      
  9 10  1  0      
 10 11  1  0      
 11 12  1  0      
 12 13  1  0      
 13  8  1  0      
  3 14  1  0      
 14 15  2  0      
 15 16  1  0      
 16 17  2  0      
 17 18  1  0      
 18 19  2  0      
 19 14  1  0      
 17 20  1  0      
 20 21  1  0      
 21 22  1  0      
 22 23  1  0      
 23 24  1  0      
 24 25  1  0      
 25 20  1  0      
 18 26  1  0      
 26 27  1  0      
 27 28  1  0      
 27 29  2  0      
 28 30  2  0      
 30 31  1  0      
 32 33  1  0      
 33 34  2  0      
 34 28  1  0      
 23 35  1  0      
 32 31  1  0      
 32 36  2  0      
 34 37  1  0      
 37 38  1  0      
 37 39  1  0      
 37 40  1  0      
M  END

>  <RackCode>
HYCPK72335

>  <Cat. No.>
HY-16993

>  <Product Name>
OICR-9429

>  <ROW>
B

>  <COLUMN>
13

>  <CAS No.>
1801787-56-3

>  <MWt>
555.59

>  <Target>
Apoptosis; Histone Methyltransferase

>  <Saltdate>
Free Base

>  <Smiles>
O=C(C1=CNC(C=C1C(F)(F)F)=O)NC2=CC(C3=CC(CN4CCOCC4)=CC=C3)=CC=C2N5CCN(C)CC5

>  <Solvent>
DMSO Solution

>  <Batch No.>
21449

>  <Quantity>
10mM  * 50uL

>  <Pathway>
Apoptosis; Epigenetics

>  <Synonyms>


>  <Formula>
C29H32F3N5O3

>  <Research_Area>
Cancer

>  <Clinical_Information>
No Development Reported

>  <SUPPLIER>
MedChemExpress

$$$$
Untitled Document
  ChemDraw08012213572D

 20 22  0  0  0  0  0  0  0  0999 V2000
   -2.3953    0.7260    0.0000 C   0  0  0  0  0  0  0  0  0  0  0  0
   -2.3953   -0.0990    0.0000 C   0  0  0  0  0  0  0  0  0  0  0  0
   -3.1098   -0.5115    0.0000 C   0  0  0  0  0  0  0  0  0  0  0  0
   -3.8242   -0.0990    0.0000 C   0  0  0  0  0  0  0  0  0  0  0  0
   -3.8242    0.7260    0.0000 C   0  0  0  0  0  0  0  0  0  0  0  0
   -3.1098    1.1385    0.0000 N   0  0  0  0  0  0  0  0  0  0  0  0
   -1.6107    0.9810    0.0000 S   0  0  0  0  0  0  0  0  0  0  0  0
   -1.1258    0.3135    0.0000 N   0  0  0  0  0  0  0  0  0  0  0  0
   -1.6107   -0.3539    0.0000 C   0  0  0  0  0  0  0  0  0  0  0  0
   -1.3557   -1.1385    0.0000 O   0  0  0  0  0  0  0  0  0  0  0  0
   -0.3008    0.3135    0.0000 C   0  0  0  0  0  0  0  0  0  0  0  0
    0.1117    1.0280    0.0000 C   0  0  0  0  0  0  0  0  0  0  0  0
    0.9367    1.0280    0.0000 C   0  0  0  0  0  0  0  0  0  0  0  0
    1.3492    0.3135    0.0000 C   0  0  0  0  0  0  0  0  0  0  0  0
    0.9367   -0.4009    0.0000 C   0  0  0  0  0  0  0  0  0  0  0  0
    0.1117   -0.4009    0.0000 C   0  0  0  0  0  0  0  0  0  0  0  0
    2.1742    0.3135    0.0000 C   0  0  0  0  0  0  0  0  0  0  0  0
    2.5867   -0.4009    0.0000 C   0  0  0  0  0  0  0  0  0  0  0  0
    3.4117   -0.4009    0.0000 C   0  0  0  0  0  0  0  0  0  0  0  0
    3.8242   -1.1154    0.0000 C   0  0  0  0  0  0  0  0  0  0  0  0
  1  2  1  0      
  2  3  2  0      
  3  4  1  0      
  4  5  2  0      
  5  6  1  0      
  1  6  2  0      
  7  8  1  0      
  8  9  1  0      
  1  7  1  0      
  2  9  1  0      
  9 10  2  0      
 11 12  1  0      
 12 13  2  0      
 13 14  1  0      
 14 15  2  0      
 15 16  1  0      
 11 16  2  0      
 17 18  1  0      
 18 19  1  0      
 19 20  1  0      
 14 17  1  0      
  8 11  1  0      
M  END

>  <RackCode>
HYCPK72335

>  <Cat. No.>
HY-147290

>  <Product Name>
NSC 694623

>  <ROW>
C

>  <COLUMN>
13

>  <CAS No.>
907957-34-0

>  <MWt>
284.38

>  <Target>
Histone Acetyltransferase

>  <Saltdate>


>  <Smiles>
O=C1N(C2=CC=C(CCCC)C=C2)SC3=NC=CC=C31

>  <Solvent>
DMSO Solution

>  <Batch No.>
266184

>  <Quantity>
10mM  * 50uL

>  <Pathway>
Epigenetics

>  <Synonyms>


>  <Formula>
C16H16N2OS

>  <Research_Area>
Cancer

>  <Clinical_Information>
No Development Reported

>  <SUPPLIER>
MedChemExpress

$$$$
Untitled Document
  ChemDraw01101715032D

 34 37  0  0  0  0  0  0  0  0999 V2000
   -2.7186    2.8406    0.0000 C   0  0  0  0  0  0  0  0  0  0  0  0
   -2.7186    2.0156    0.0000 C   0  0  0  0  0  0  0  0  0  0  0  0
   -2.0042    1.6031    0.0000 C   0  0  0  0  0  0  0  0  0  0  0  0
   -1.2897    2.0156    0.0000 C   0  0  0  0  0  0  0  0  0  0  0  0
   -1.2897    2.8406    0.0000 C   0  0  0  0  0  0  0  0  0  0  0  0
   -2.0042    3.2531    0.0000 C   0  0  0  0  0  0  0  0  0  0  0  0
   -0.5752    1.6031    0.0000 C   0  0  0  0  0  0  0  0  0  0  0  0
   -0.5752    0.7781    0.0000 C   0  0  0  0  0  0  0  0  0  0  0  0
    0.1392    0.3656    0.0000 C   0  0  0  0  0  0  0  0  0  0  0  0
    0.8537    0.7781    0.0000 C   0  0  0  0  0  0  0  0  0  0  0  0
    0.8537    1.6031    0.0000 C   0  0  0  0  0  0  0  0  0  0  0  0
    0.1392    2.0156    0.0000 C   0  0  0  0  0  0  0  0  0  0  0  0
    1.4987    0.2637    0.0000 O   0  0  0  0  0  0  0  0  0  0  0  0
    2.3030    0.4473    0.0000 C   0  0  0  0  0  0  0  0  0  0  0  0
    2.6610    1.1906    0.0000 C   0  0  0  0  0  0  0  0  0  0  0  0
    2.3030    1.9339    0.0000 N   0  0  0  0  0  0  0  0  0  0  0  0
    1.4987    2.1175    0.0000 C   0  0  0  0  0  0  0  0  0  0  0  0
   -3.4331    3.2531    0.0000 O   0  0  0  0  0  0  0  0  0  0  0  0
   -4.1476    2.8406    0.0000 C   0  0  0  0  0  0  0  0  0  0  0  0
   -3.4331    1.6031    0.0000 O   0  0  0  0  0  0  0  0  0  0  0  0
   -4.1476    2.0156    0.0000 C   0  0  0  0  0  0  0  0  0  0  0  0
    0.1392   -0.4594    0.0000 O   0  0  0  0  0  0  0  0  0  0  0  0
    0.8537   -0.8719    0.0000 C   0  0  0  0  0  0  0  0  0  0  0  0
    0.8537   -1.6969    0.0000 C   0  0  0  0  0  0  0  0  0  0  0  0
    0.1392   -2.1094    0.0000 C   0  0  0  0  0  0  0  0  0  0  0  0
    0.1392   -2.9344    0.0000 C   0  0  0  0  0  0  0  0  0  0  0  0
    0.8537   -3.3469    0.0000 C   0  0  0  0  0  0  0  0  0  0  0  0
    1.5682   -2.9344    0.0000 N   0  0  0  0  0  0  0  0  0  0  0  0
    1.5682   -2.1094    0.0000 C   0  0  0  0  0  0  0  0  0  0  0  0
    2.2827   -3.3469    0.0000 C   0  0  0  0  0  0  0  0  0  0  0  0
    2.8174    2.5789    0.0000 C   0  0  0  0  0  0  0  0  0  0  0  0
    2.5160    3.3469    0.0000 O   0  0  0  0  0  0  0  0  0  0  0  0
    3.6332    2.4560    0.0000 C   0  0  0  0  0  0  0  0  0  0  0  0
    4.1476    3.1010    0.0000 C   0  0  0  0  0  0  0  0  0  0  0  0
  1  2  2  0      
  2  3  1  0      
  3  4  2  0      
  4  5  1  0      
  5  6  2  0      
  6  1  1  0      
  4  7  1  0      
  7  8  2  0      
  8  9  1  0      
  9 10  2  0      
 10 11  1  0      
 11 12  2  0      
 12  7  1  0      
 10 13  1  0      
 13 14  1  0      
 14 15  1  0      
 15 16  1  0      
 16 17  1  0      
 17 11  1  0      
  1 18  1  0      
 18 19  1  0      
  2 20  1  0      
 20 21  1  0      
  9 22  1  0      
 22 23  1  0      
 24 23  1  6      
 24 25  1  0      
 25 26  1  0      
 26 27  1  0      
 27 28  1  0      
 28 29  1  0      
 29 24  1  0      
 28 30  1  0      
 16 31  1  0      
 31 32  2  0      
 31 33  1  0      
 33 34  1  0      
M  END

>  <RackCode>
HYCPK72335

>  <Cat. No.>
HY-19541

>  <Product Name>
I-CBP112

>  <ROW>
D

>  <COLUMN>
13

>  <CAS No.>
1640282-31-0

>  <MWt>
468.59

>  <Target>
Epigenetic Reader Domain; Histone Acetyltransferase

>  <Saltdate>
Free Base

>  <Smiles>
COC1=C(OC)C=C(C2=CC(OC[C@H]3CCCN(C)C3)=C(OCCN(C(CC)=O)C4)C4=C2)C=C1

>  <Solvent>
DMSO Solution

>  <Batch No.>
23022

>  <Quantity>
10mM  * 50uL

>  <Pathway>
Epigenetics

>  <Synonyms>


>  <Formula>
C27H36N2O5

>  <Research_Area>
Cancer

>  <Clinical_Information>
No Development Reported

>  <SUPPLIER>
MedChemExpress

$$$$
Untitled Document
  ChemDraw12272317102D

 28 30  0  0  0  0  0  0  0  0999 V2000
   -4.2869    0.1150    0.0000 C   0  0  0  0  0  0  0  0  0  0  0  0
   -4.2869   -0.7101    0.0000 C   0  0  0  0  0  0  0  0  0  0  0  0
   -3.5725   -1.1225    0.0000 C   0  0  0  0  0  0  0  0  0  0  0  0
   -2.8580   -0.7101    0.0000 C   0  0  0  0  0  0  0  0  0  0  0  0
   -2.8580    0.1150    0.0000 C   0  0  0  0  0  0  0  0  0  0  0  0
   -3.5725    0.5274    0.0000 C   0  0  0  0  0  0  0  0  0  0  0  0
   -2.1435   -1.1225    0.0000 N   0  0  0  0  0  0  0  0  0  0  0  0
   -1.4290   -0.7101    0.0000 C   0  0  0  0  0  0  0  0  0  0  0  0
   -1.4290    0.1150    0.0000 C   0  0  0  0  0  0  0  0  0  0  0  0
   -2.1435    0.5274    0.0000 N   0  0  0  0  0  0  0  0  0  0  0  0
   -0.8159    0.6670    0.0000 N   0  0  0  0  0  0  0  0  0  0  0  0
   -1.1514    1.4207    0.0000 N   0  0  0  0  0  0  0  0  0  0  0  0
   -1.9719    1.3345    0.0000 C   0  0  0  0  0  0  0  0  0  0  0  0
   -2.5240    1.9476    0.0000 C   0  0  0  0  0  0  0  0  0  0  0  0
   -5.0014   -1.1225    0.0000 O   0  0  0  0  0  0  0  0  0  0  0  0
   -5.7159   -0.7101    0.0000 C   0  0  0  0  0  0  0  0  0  0  0  0
   -0.7145   -1.1225    0.0000 N   0  0  0  0  0  0  0  0  0  0  0  0
    0.0000   -0.7101    0.0000 C   0  0  0  0  0  0  0  0  0  0  0  0
    0.7145   -1.1225    0.0000 C   0  0  0  0  0  0  0  0  0  0  0  0
    1.4290   -0.7101    0.0000 C   0  0  0  0  0  0  0  0  0  0  0  0
    2.1435   -1.1225    0.0000 C   0  0  0  0  0  0  0  0  0  0  0  0
    2.8580   -0.7101    0.0000 N   0  0  0  0  0  0  0  0  0  0  0  0
    3.5725   -1.1225    0.0000 C   0  0  0  0  0  0  0  0  0  0  0  0
    4.2869   -0.7101    0.0000 C   0  0  0  0  0  0  0  0  0  0  0  0
    3.5725   -1.9476    0.0000 O   0  0  0  0  0  0  0  0  0  0  0  0
    5.0014   -1.1225    0.0000 C   0  0  0  0  0  0  0  0  0  0  0  0
    5.7159   -0.7101    0.0000 C   0  0  0  0  0  0  0  0  0  0  0  0
    5.0014   -1.9476    0.0000 C   0  0  0  0  0  0  0  0  0  0  0  0
  1  2  2  0      
  2  3  1  0      
  3  4  2  0      
  4  5  1  0      
  5  6  2  0      
  6  1  1  0      
  4  7  1  0      
  7  8  2  0      
  8  9  1  0      
  9 10  1  0      
 10  5  1  0      
  9 11  2  0      
 11 12  1  0      
 12 13  2  0      
 13 10  1  0      
 13 14  1  0      
  2 15  1  0      
 15 16  1  0      
  8 17  1  0      
 17 18  1  0      
 18 19  1  0      
 19 20  1  0      
 20 21  1  0      
 21 22  1  0      
 22 23  1  0      
 23 24  1  0      
 23 25  2  0      
 24 26  1  0      
 26 27  1  0      
 26 28  1  0      
M  END

>  <RackCode>
HYCPK72335

>  <Cat. No.>
HY-162088

>  <Product Name>
DW71177

>  <ROW>
E

>  <COLUMN>
13

>  <CAS No.>
2241311-72-6

>  <MWt>
384.48

>  <Target>
Epigenetic Reader Domain

>  <Saltdate>


>  <Smiles>
CC1=NN=C2C(NCCCCNC(CC(C)C)=O)=NC3=CC(OC)=CC=C3N21

>  <Solvent>
DMSO Solution

>  <Batch No.>
398640

>  <Quantity>
10mM  * 50uL

>  <Pathway>
Epigenetics

>  <Synonyms>


>  <Formula>
C20H28N6O2

>  <Research_Area>
Inflammation/Immunology

>  <Clinical_Information>
No Development Reported

>  <SUPPLIER>
MedChemExpress

$$$$
Untitled Document
  ChemDraw06012314542D

 22 24  0  0  0  0  0  0  0  0999 V2000
   -1.3375   -2.1102    0.0000 C   0  0  0  0  0  0  0  0  0  0  0  0
   -1.0019   -1.3567    0.0000 C   0  0  0  0  0  0  0  0  0  0  0  0
   -0.1949   -1.1851    0.0000 N   0  0  0  0  0  0  0  0  0  0  0  0
   -0.1087   -0.3647    0.0000 N   0  0  0  0  0  0  0  0  0  0  0  0
   -0.8624   -0.0291    0.0000 C   0  0  0  0  0  0  0  0  0  0  0  0
   -1.4144   -0.6422    0.0000 C   0  0  0  0  0  0  0  0  0  0  0  0
   -2.2348   -0.5560    0.0000 C   0  0  0  0  0  0  0  0  0  0  0  0
   -2.5703    0.1977    0.0000 C   0  0  0  0  0  0  0  0  0  0  0  0
   -3.3773    0.3692    0.0000 C   0  0  0  0  0  0  0  0  0  0  0  0
   -3.4636    1.1897    0.0000 C   0  0  0  0  0  0  0  0  0  0  0  0
   -2.7099    1.5253    0.0000 C   0  0  0  0  0  0  0  0  0  0  0  0
   -2.1578    0.9122    0.0000 N   0  0  0  0  0  0  0  0  0  0  0  0
   -1.0339    0.7779    0.0000 O   0  0  0  0  0  0  0  0  0  0  0  0
    0.6058    0.0478    0.0000 C   0  0  0  0  0  0  0  0  0  0  0  0
    0.6058    0.8728    0.0000 C   0  0  0  0  0  0  0  0  0  0  0  0
    1.3202    1.2853    0.0000 C   0  0  0  0  0  0  0  0  0  0  0  0
    2.0346    0.8728    0.0000 C   0  0  0  0  0  0  0  0  0  0  0  0
    2.7491    1.2853    0.0000 C   0  0  0  0  0  0  0  0  0  0  0  0
    3.4636    0.8728    0.0000 O   0  0  0  0  0  0  0  0  0  0  0  0
    2.7491    2.1102    0.0000 O   0  0  0  0  0  0  0  0  0  0  0  0
    2.0346    0.0478    0.0000 C   0  0  0  0  0  0  0  0  0  0  0  0
    1.3202   -0.3647    0.0000 C   0  0  0  0  0  0  0  0  0  0  0  0
  1  2  1  0      
  2  3  2  0      
  3  4  1  0      
  4  5  1  0      
  5  6  1  0      
  2  6  1  0      
  6  7  2  0      
  7  8  1  0      
  8  9  2  0      
  9 10  1  0      
 10 11  2  0      
 11 12  1  0      
  8 12  1  0      
  5 13  2  0      
  4 14  1  0      
 14 15  2  0      
 15 16  1  0      
 16 17  2  0      
 17 18  1  0      
 18 19  1  0      
 18 20  2  0      
 17 21  1  0      
 21 22  2  0      
 14 22  1  0      
M  END

>  <RackCode>
HYCPK72335

>  <Cat. No.>
HY-149302

>  <Product Name>
MC4033

>  <ROW>
F

>  <COLUMN>
13

>  <CAS No.>
28532-21-0

>  <MWt>
295.29

>  <Target>
Apoptosis; Autophagy; Histone Acetyltransferase

>  <Saltdate>


>  <Smiles>
CC1=NN(C2=CC=C(C=C2)C(O)=O)C(/C1=C\C3=CC=CN3)=O

>  <Solvent>
DMSO Solution

>  <Batch No.>
285659

>  <Quantity>
10mM  * 50uL

>  <Pathway>
Apoptosis; Autophagy; Epigenetics

>  <Synonyms>


>  <Formula>
C16H13N3O3

>  <Research_Area>
Cancer

>  <Clinical_Information>
No Development Reported

>  <SUPPLIER>
MedChemExpress

$$$$
Untitled Document
  ChemDraw01181709002D

 40 43  0  0  0  0  0  0  0  0999 V2000
    4.5585    1.6374    0.0000 C   0  0  0  0  0  0  0  0  0  0  0  0
    4.5585    0.8096    0.0000 C   0  0  0  0  0  0  0  0  0  0  0  0
    5.2754    0.3957    0.0000 N   0  0  0  0  0  0  0  0  0  0  0  0
    5.9923    0.8096    0.0000 C   0  0  0  0  0  0  0  0  0  0  0  0
    5.9923    1.6374    0.0000 N   0  0  0  0  0  0  0  0  0  0  0  0
    5.2754    2.0513    0.0000 C   0  0  0  0  0  0  0  0  0  0  0  0
    3.7712    1.8932    0.0000 C   0  0  0  0  0  0  0  0  0  0  0  0
    3.2851    1.2235    0.0000 C   0  0  0  0  0  0  0  0  0  0  0  0
    3.7712    0.5538    0.0000 N   0  0  0  0  0  0  0  0  0  0  0  0
    5.2754    2.8762    0.0000 N   0  0  0  0  0  0  0  0  0  0  0  0
    3.5164    2.6777    0.0000 Br  0  0  0  0  0  0  0  0  0  0  0  0
    2.4303    0.5767    0.0000 O   0  0  0  0  0  0  0  0  0  0  0  0
    1.8053    0.0340    0.0000 C   0  0  0  0  0  0  0  0  0  0  0  0
    2.1283   -0.7282    0.0000 C   0  0  0  0  0  0  0  0  0  0  0  0
    2.9530   -0.6564    0.0000 C   0  0  0  0  0  0  0  0  0  0  0  0
    3.1396    0.1501    0.0000 C   0  0  0  0  0  0  0  0  0  0  0  0
    1.0016    0.2199    0.0000 C   0  0  0  0  0  0  0  0  0  0  0  0
    3.4935   -1.2792    0.0000 O   0  0  0  0  0  0  0  0  0  0  0  0
    1.7031   -1.4350    0.0000 O   0  0  0  0  0  0  0  0  0  0  0  0
    0.4387   -0.3831    0.0000 N   0  0  0  0  0  0  0  0  0  0  0  0
   -0.3141   -0.0387    0.0000 C   0  0  0  0  0  0  0  0  0  0  0  0
    0.4418   -1.2108    0.0000 C   0  0  0  0  0  0  0  0  0  0  0  0
   -0.3920    0.7825    0.0000 C   0  0  0  0  0  0  0  0  0  0  0  0
   -0.9863   -0.5167    0.0000 C   0  0  0  0  0  0  0  0  0  0  0  0
   -0.2703   -1.6272    0.0000 C   0  0  0  0  0  0  0  0  0  0  0  0
   -0.2658   -2.4521    0.0000 C   0  0  0  0  0  0  0  0  0  0  0  0
   -0.9780   -2.8685    0.0000 N   0  0  0  0  0  0  0  0  0  0  0  0
   -1.6946   -2.4599    0.0000 C   0  0  0  0  0  0  0  0  0  0  0  0
   -2.4067   -2.8762    0.0000 N   0  0  0  0  0  0  0  0  0  0  0  0
   -1.6991   -1.6349    0.0000 O   0  0  0  0  0  0  0  0  0  0  0  0
   -3.1233   -2.4676    0.0000 C   0  0  0  0  0  0  0  0  0  0  0  0
   -3.1302   -1.6399    0.0000 C   0  0  0  0  0  0  0  0  0  0  0  0
   -3.8500   -1.2319    0.0000 C   0  0  0  0  0  0  0  0  0  0  0  0
   -4.5635   -1.6399    0.0000 C   0  0  0  0  0  0  0  0  0  0  0  0
   -4.5635   -2.4676    0.0000 C   0  0  0  0  0  0  0  0  0  0  0  0
   -3.8500   -2.8757    0.0000 C   0  0  0  0  0  0  0  0  0  0  0  0
   -5.2770   -1.2259    0.0000 C   0  0  0  0  0  0  0  0  0  0  0  0
   -5.9923   -1.6369    0.0000 C   0  0  0  0  0  0  0  0  0  0  0  0
   -5.2753   -0.4011    0.0000 C   0  0  0  0  0  0  0  0  0  0  0  0
   -4.5618   -0.8149    0.0000 C   0  0  0  0  0  0  0  0  0  0  0  0
  1  2  2  0      
  2  3  1  0      
  3  4  2  0      
  4  5  1  0      
  5  6  2  0      
  6  1  1  0      
  1  7  1  0      
  7  8  2  0      
  8  9  1  0      
  9  2  1  0      
  6 10  1  0      
  7 11  1  0      
 12 13  1  0      
 13 14  1  0      
 14 15  1  0      
 15 16  1  0      
 16 12  1  0      
 16  9  1  1      
 13 17  1  1      
 15 18  1  6      
 14 19  1  6      
 17 20  1  0      
 20 21  1  0      
 20 22  1  0      
 21 23  1  0      
 21 24  1  0      
 22 25  1  0      
 25 26  1  0      
 26 27  1  0      
 27 28  1  0      
 28 29  1  0      
 28 30  2  0      
 29 31  1  0      
 31 32  2  0      
 32 33  1  0      
 33 34  2  0      
 34 35  1  0      
 35 36  2  0      
 36 31  1  0      
 34 37  1  0      
 37 38  1  0      
 37 39  1  0      
 37 40  1  0      
M  END

>  <RackCode>
HYCPK72335

>  <Cat. No.>
HY-15650

>  <Product Name>
SGC0946

>  <ROW>
G

>  <COLUMN>
13

>  <CAS No.>
1561178-17-3

>  <MWt>
618.57

>  <Target>
Histone Methyltransferase

>  <Saltdate>
Free Base

>  <Smiles>
NC1=NC=NC2=C1C(Br)=CN2[C@H]3[C@H](O)[C@H](O)[C@@H](CN(CCCNC(NC4=CC=C(C(C)(C)C)C=C4)=O)C(C)C)O3

>  <Solvent>
DMSO Solution

>  <Batch No.>
116230

>  <Quantity>
10mM  * 50uL

>  <Pathway>
Epigenetics

>  <Synonyms>


>  <Formula>
C28H40BrN7O4

>  <Research_Area>
Cancer

>  <Clinical_Information>
No Development Reported

>  <SUPPLIER>
MedChemExpress

$$$$
Untitled Document
  ChemDraw04031311072D

 26 28  0  0  0  0  0  0  0  0999 V2000
   -2.1434   -0.2063    0.0000 C   0  0  0  0  0  0  0  0  0  0  0  0
   -2.8579   -0.6188    0.0000 C   0  0  0  0  0  0  0  0  0  0  0  0
   -2.8579   -1.4438    0.0000 C   0  0  0  0  0  0  0  0  0  0  0  0
   -3.5724   -1.8563    0.0000 C   0  0  0  0  0  0  0  0  0  0  0  0
   -4.2868   -1.4438    0.0000 C   0  0  0  0  0  0  0  0  0  0  0  0
   -4.2868   -0.6188    0.0000 C   0  0  0  0  0  0  0  0  0  0  0  0
   -3.5724   -0.2063    0.0000 C   0  0  0  0  0  0  0  0  0  0  0  0
   -2.1434    0.6188    0.0000 O   0  0  0  0  0  0  0  0  0  0  0  0
   -1.4289   -0.6188    0.0000 N   0  0  0  0  0  0  0  0  0  0  0  0
   -3.5724    0.6188    0.0000 Cl  0  0  0  0  0  0  0  0  0  0  0  0
   -2.1434   -1.8563    0.0000 Cl  0  0  0  0  0  0  0  0  0  0  0  0
    0.7145   -0.2063    0.0000 C   0  0  0  0  0  0  0  0  0  0  0  0
   -0.0000   -0.6188    0.0000 C   0  0  0  0  0  0  0  0  0  0  0  0
   -0.7145   -0.2063    0.0000 C   0  0  0  0  0  0  0  0  0  0  0  0
   -0.7145    0.6188    0.0000 C   0  0  0  0  0  0  0  0  0  0  0  0
   -0.0000    1.0313    0.0000 C   0  0  0  0  0  0  0  0  0  0  0  0
    0.7145    0.6188    0.0000 N   0  0  0  0  0  0  0  0  0  0  0  0
    1.4289   -0.6188    0.0000 N   0  0  0  0  0  0  0  0  0  0  0  0
    2.8579    1.0313    0.0000 C   0  0  0  0  0  0  0  0  0  0  0  0
    2.1434    0.6188    0.0000 N   0  0  0  0  0  0  0  0  0  0  0  0
    2.1434   -0.2063    0.0000 C   0  0  0  0  0  0  0  0  0  0  0  0
    2.8579   -0.6188    0.0000 C   0  0  0  0  0  0  0  0  0  0  0  0
    3.5724   -0.2063    0.0000 C   0  0  0  0  0  0  0  0  0  0  0  0
    3.5724    0.6188    0.0000 N   0  0  0  0  0  0  0  0  0  0  0  0
    4.2868   -0.6188    0.0000 C   0  0  0  0  0  0  0  0  0  0  0  0
    2.8579    1.8563    0.0000 N   0  0  0  0  0  0  0  0  0  0  0  0
  1  2  1  0      
  2  3  1  0      
  3  4  2  0      
  4  5  1  0      
  5  6  2  0      
  6  7  1  0      
  2  7  2  0      
  1  8  2  0      
  1  9  1  0      
  7 10  1  0      
  3 11  1  0      
 12 13  1  0      
 13 14  2  0      
 14 15  1  0      
 15 16  2  0      
 16 17  1  0      
 12 17  2  0      
 19 20  1  0      
 20 21  2  0      
 21 22  1  0      
 22 23  2  0      
 23 24  1  0      
 19 24  2  0      
 23 25  1  0      
 19 26  1  0      
 18 21  1  0      
 12 18  1  0      
  9 14  1  0      
M  END

>  <RackCode>
HYCPK72335

>  <Cat. No.>
HY-18316

>  <Product Name>
RO495

>  <ROW>
H

>  <COLUMN>
13

>  <CAS No.>
1258296-60-4

>  <MWt>
389.24

>  <Target>
JAK

>  <Saltdate>


>  <Smiles>
O=C(NC1=CC(NC2=NC(N)=NC(C)=C2)=NC=C1)C3=C(Cl)C=CC=C3Cl

>  <Solvent>
DMSO Solution

>  <Batch No.>
293916

>  <Quantity>
10mM  * 50uL

>  <Pathway>
Epigenetics; JAK/STAT Signaling; Protein Tyrosine Kinase/RTK; Stem Cell/Wnt

>  <Synonyms>


>  <Formula>
C17H14Cl2N6O

>  <Research_Area>
Inflammation/Immunology

>  <Clinical_Information>
No Development Reported

>  <SUPPLIER>
MedChemExpress

$$$$
Untitled Document
  ChemDraw07291908552D

 23 25  0  0  0  0  0  0  0  0999 V2000
   -2.4920    0.4111    0.0000 C   0  0  0  0  0  0  0  0  0  0  0  0
   -2.4920   -0.4111    0.0000 C   0  0  0  0  0  0  0  0  0  0  0  0
   -1.7800   -0.8221    0.0000 C   0  0  0  0  0  0  0  0  0  0  0  0
   -1.0680   -0.4111    0.0000 C   0  0  0  0  0  0  0  0  0  0  0  0
   -1.0680    0.4111    0.0000 C   0  0  0  0  0  0  0  0  0  0  0  0
   -1.7800    0.8221    0.0000 C   0  0  0  0  0  0  0  0  0  0  0  0
   -0.3560   -0.8221    0.0000 C   0  0  0  0  0  0  0  0  0  0  0  0
    0.3560   -0.4111    0.0000 C   0  0  0  0  0  0  0  0  0  0  0  0
   -0.3560    0.8221    0.0000 O   0  0  0  0  0  0  0  0  0  0  0  0
    1.0680    0.8221    0.0000 C   0  0  0  0  0  0  0  0  0  0  0  0
    1.7800    0.4111    0.0000 C   0  0  0  0  0  0  0  0  0  0  0  0
    2.4920    0.8221    0.0000 C   0  0  0  0  0  0  0  0  0  0  0  0
    2.4920    1.6443    0.0000 C   0  0  0  0  0  0  0  0  0  0  0  0
    1.7800    2.0553    0.0000 C   0  0  0  0  0  0  0  0  0  0  0  0
    1.0680    1.6443    0.0000 C   0  0  0  0  0  0  0  0  0  0  0  0
    3.2040    2.0553    0.0000 O   0  0  0  0  0  0  0  0  0  0  0  0
   -1.7800   -1.6443    0.0000 O   0  0  0  0  0  0  0  0  0  0  0  0
   -2.4920   -2.0553    0.0000 C   0  0  0  0  0  0  0  0  0  0  0  0
   -3.2040    0.8221    0.0000 O   0  0  0  0  0  0  0  0  0  0  0  0
   -3.9159    0.4111    0.0000 C   0  0  0  0  0  0  0  0  0  0  0  0
    3.9159    1.6443    0.0000 C   0  0  0  0  0  0  0  0  0  0  0  0
   -0.3560   -1.6443    0.0000 O   0  0  0  0  0  0  0  0  0  0  0  0
    0.3560    0.4111    0.0000 C   0  0  0  0  0  0  0  0  0  0  0  0
  1  2  2  0      
  2  3  1  0      
  3  4  2  0      
  4  5  1  0      
  5  6  2  0      
  6  1  1  0      
  4  7  1  0      
  7  8  1  0      
  9  5  1  0      
 10 11  2  0      
 11 12  1  0      
 12 13  2  0      
 13 14  1  0      
 14 15  2  0      
 15 10  1  0      
 13 16  1  0      
  3 17  1  0      
 17 18  1  0      
  1 19  1  0      
 19 20  1  0      
 16 21  1  0      
  7 22  2  0      
  9 23  1  0      
 23  8  2  0      
 23 10  1  0      
M  END

>  <RackCode>
HYCPK72335

>  <Cat. No.>
HY-N6818

>  <Product Name>
5,?7,?4'-?Trimethoxyflavone

>  <ROW>
I

>  <COLUMN>
13

>  <CAS No.>
5631-70-9

>  <MWt>
312.32

>  <Target>
Apoptosis; Caspase; CFTR; Endogenous Metabolite; PARP

>  <Saltdate>
Free Base

>  <Smiles>
COC1=C(C(C=C(C2=CC=C(OC)C=C2)O3)=O)C3=CC(OC)=C1

>  <Solvent>
DMSO Solution

>  <Batch No.>
90698

>  <Quantity>
10mM  * 50uL

>  <Pathway>
Apoptosis; Cell Cycle/DNA Damage; Epigenetics; Membrane Transporter/Ion Channel; Metabolic Enzyme/Protease

>  <Synonyms>


>  <Formula>
C18H16O5

>  <Research_Area>
Cancer

>  <Clinical_Information>
No Development Reported

>  <SUPPLIER>
MedChemExpress

$$$$
Untitled Document
  ChemDraw05101917262D

 18 20  0  0  0  0  0  0  0  0999 V2000
   -0.9920    1.0312    0.0000 O   0  0  0  0  0  0  0  0  0  0  0  0
   -0.9920    0.2063    0.0000 C   0  0  0  0  0  0  0  0  0  0  0  0
   -0.2775   -0.2062    0.0000 N   0  0  0  0  0  0  0  0  0  0  0  0
    0.4369    0.2063    0.0000 C   0  0  0  0  0  0  0  0  0  0  0  0
    1.1514   -0.2062    0.0000 C   0  0  0  0  0  0  0  0  0  0  0  0
    1.8659    0.2063    0.0000 C   0  0  0  0  0  0  0  0  0  0  0  0
    1.8659    1.0313    0.0000 C   0  0  0  0  0  0  0  0  0  0  0  0
    2.6505    1.2862    0.0000 N   0  0  0  0  0  0  0  0  0  0  0  0
    3.1354    0.6188    0.0000 C   0  0  0  0  0  0  0  0  0  0  0  0
    2.6505   -0.0487    0.0000 C   0  0  0  0  0  0  0  0  0  0  0  0
    1.1514    1.4437    0.0000 C   0  0  0  0  0  0  0  0  0  0  0  0
    0.4369    1.0312    0.0000 N   0  0  0  0  0  0  0  0  0  0  0  0
   -1.7065   -0.2062    0.0000 C   0  0  0  0  0  0  0  0  0  0  0  0
   -1.7065   -1.0312    0.0000 C   0  0  0  0  0  0  0  0  0  0  0  0
   -2.4209   -1.4437    0.0000 C   0  0  0  0  0  0  0  0  0  0  0  0
   -3.1354   -1.0312    0.0000 C   0  0  0  0  0  0  0  0  0  0  0  0
   -3.1354   -0.2062    0.0000 C   0  0  0  0  0  0  0  0  0  0  0  0
   -2.4209    0.2063    0.0000 C   0  0  0  0  0  0  0  0  0  0  0  0
  1  2  2  0      
  2  3  1  0      
  3  4  1  0      
  4  5  2  0      
  5  6  1  0      
  6  7  2  0      
  7  8  1  0      
  8  9  1  0      
  9 10  2  0      
  6 10  1  0      
  7 11  1  0      
 11 12  2  0      
  4 12  1  0      
  2 13  1  0      
 13 14  2  0      
 14 15  1  0      
 15 16  2  0      
 16 17  1  0      
 17 18  2  0      
 13 18  1  0      
M  END

>  <RackCode>
HYCPK72335

>  <Cat. No.>
HY-12303

>  <Product Name>
OAC1

>  <ROW>
J

>  <COLUMN>
13

>  <CAS No.>
300586-90-7

>  <MWt>
237.26

>  <Target>
Oct3/4; TET Protein

>  <Saltdate>
Free Base

>  <Smiles>
O=C(NC1=CC2=C(NC=C2)C=N1)C3=CC=CC=C3

>  <Solvent>
DMSO Solution

>  <Batch No.>
16939

>  <Quantity>
10mM  * 50uL

>  <Pathway>
Epigenetics; Stem Cell/Wnt

>  <Synonyms>


>  <Formula>
C14H11N3O

>  <Research_Area>
Cancer

>  <Clinical_Information>
No Development Reported

>  <SUPPLIER>
MedChemExpress

$$$$
Untitled Document
  ChemDraw06151714582D

 35 39  0  0  0  0  0  0  0  0999 V2000
   -0.4088   -0.3279    0.0000 C   0  0  0  0  0  0  0  0  0  0  0  0
   -0.4088   -1.1500    0.0000 C   0  0  0  0  0  0  0  0  0  0  0  0
    0.3032   -1.5611    0.0000 C   0  0  0  0  0  0  0  0  0  0  0  0
    1.0152   -1.1500    0.0000 C   0  0  0  0  0  0  0  0  0  0  0  0
    1.0152   -0.3279    0.0000 C   0  0  0  0  0  0  0  0  0  0  0  0
    0.3032    0.0832    0.0000 C   0  0  0  0  0  0  0  0  0  0  0  0
    1.7272   -1.5611    0.0000 N   0  0  0  0  0  0  0  0  0  0  0  0
    2.4391   -1.1500    0.0000 C   0  0  0  0  0  0  0  0  0  0  0  0
    2.4391   -0.3279    0.0000 C   0  0  0  0  0  0  0  0  0  0  0  0
    1.7272    0.0832    0.0000 C   0  0  0  0  0  0  0  0  0  0  0  0
    1.7272    0.9053    0.0000 N   0  0  0  0  0  0  0  0  0  0  0  0
    2.4391    1.3164    0.0000 C   0  0  0  0  0  0  0  0  0  0  0  0
    3.1511    0.9053    0.0000 C   0  0  0  0  0  0  0  0  0  0  0  0
    3.8631    1.3164    0.0000 C   0  0  0  0  0  0  0  0  0  0  0  0
    3.8631    2.1386    0.0000 N   0  0  0  0  0  0  0  0  0  0  0  0
    3.1511    2.5496    0.0000 C   0  0  0  0  0  0  0  0  0  0  0  0
    2.4391    2.1386    0.0000 C   0  0  0  0  0  0  0  0  0  0  0  0
    4.5751    2.5496    0.0000 C   0  0  0  0  0  0  0  0  0  0  0  0
    3.1511   -1.5611    0.0000 C   0  0  0  0  0  0  0  0  0  0  0  0
    3.9022   -1.2267    0.0000 O   0  0  0  0  0  0  0  0  0  0  0  0
    4.4523   -1.8376    0.0000 C   0  0  0  0  0  0  0  0  0  0  0  0
    4.0412   -2.5496    0.0000 C   0  0  0  0  0  0  0  0  0  0  0  0
    3.2371   -2.3787    0.0000 C   0  0  0  0  0  0  0  0  0  0  0  0
    5.2699   -1.7517    0.0000 C   0  0  0  0  0  0  0  0  0  0  0  0
   -1.1208    0.0832    0.0000 O   0  0  0  0  0  0  0  0  0  0  0  0
   -1.8328   -0.3279    0.0000 C   0  0  0  0  0  0  0  0  0  0  0  0
   -1.1208   -1.5611    0.0000 O   0  0  0  0  0  0  0  0  0  0  0  0
   -1.8328   -1.1500    0.0000 C   0  0  0  0  0  0  0  0  0  0  0  0
   -2.5448   -1.5611    0.0000 C   0  0  0  0  0  0  0  0  0  0  0  0
   -3.2568   -1.1500    0.0000 C   0  0  0  0  0  0  0  0  0  0  0  0
   -3.9688   -1.5611    0.0000 N   0  0  0  0  0  0  0  0  0  0  0  0
   -4.7198   -1.2267    0.0000 C   0  0  0  0  0  0  0  0  0  0  0  0
   -5.2699   -1.8376    0.0000 C   0  0  0  0  0  0  0  0  0  0  0  0
   -4.8589   -2.5496    0.0000 C   0  0  0  0  0  0  0  0  0  0  0  0
   -4.0547   -2.3787    0.0000 C   0  0  0  0  0  0  0  0  0  0  0  0
  1  2  2  0      
  2  3  1  0      
  3  4  2  0      
  4  5  1  0      
  5  6  2  0      
  6  1  1  0      
  4  7  1  0      
  7  8  2  0      
  8  9  1  0      
  9 10  2  0      
 10  5  1  0      
 10 11  1  0      
 11 12  1  0      
 12 13  1  0      
 13 14  1  0      
 14 15  1  0      
 15 16  1  0      
 16 17  1  0      
 17 12  1  0      
 15 18  1  0      
  8 19  1  0      
 19 20  1  0      
 20 21  1  0      
 21 22  2  0      
 22 23  1  0      
 23 19  2  0      
 21 24  1  0      
  1 25  1  0      
 25 26  1  0      
  2 27  1  0      
 27 28  1  0      
 28 29  1  0      
 29 30  1  0      
 30 31  1  0      
 31 32  1  0      
 32 33  1  0      
 33 34  1  0      
 34 35  1  0      
 35 31  1  0      
M  END

>  <RackCode>
HYCPK72335

>  <Cat. No.>
HY-101925

>  <Product Name>
CM-272

>  <ROW>
K

>  <COLUMN>
13

>  <CAS No.>
1846570-31-7

>  <MWt>
478.63

>  <Target>
Apoptosis; DNA Methyltransferase; Histone Methyltransferase

>  <Saltdate>


>  <Smiles>
CN(CC1)CCC1NC2=CC(C3=CC=C(C)O3)=NC4=CC(OCCCN5CCCC5)=C(OC)C=C42

>  <Solvent>
DMSO Solution

>  <Batch No.>
126947

>  <Quantity>
10mM  * 50uL

>  <Pathway>
Apoptosis; Epigenetics

>  <Synonyms>


>  <Formula>
C28H38N4O3

>  <Research_Area>
Cancer

>  <Clinical_Information>
No Development Reported

>  <SUPPLIER>
MedChemExpress

$$$$
Untitled Document
  ChemDraw02211710302D

 26 28  0  0  0  0  0  0  0  0999 V2000
   -0.3489    0.0000    0.0000 C   0  0  0  0  0  0  0  0  0  0  0  0
   -0.3489    0.8242    0.0000 C   0  0  0  0  0  0  0  0  0  0  0  0
    0.3660    1.2360    0.0000 C   0  0  0  0  0  0  0  0  0  0  0  0
    1.0759    0.8242    0.0000 C   0  0  0  0  0  0  0  0  0  0  0  0
    1.0759    0.0000    0.0000 C   0  0  0  0  0  0  0  0  0  0  0  0
    0.3660   -0.4118    0.0000 N   0  0  0  0  0  0  0  0  0  0  0  0
   -1.0643    1.2360    0.0000 C   0  0  0  0  0  0  0  0  0  0  0  0
   -1.7736    1.6478    0.0000 N   0  0  0  0  0  0  0  0  0  0  0  0
    1.7907   -0.4118    0.0000 N   0  0  0  0  0  0  0  0  0  0  0  0
    3.3992    0.9900    0.0000 N   0  0  0  0  0  0  0  0  0  0  0  0
    2.5922    0.8242    0.0000 N   0  0  0  0  0  0  0  0  0  0  0  0
    2.5064    0.0000    0.0000 C   0  0  0  0  0  0  0  0  0  0  0  0
    3.2562   -0.3318    0.0000 C   0  0  0  0  0  0  0  0  0  0  0  0
    3.8110    0.2803    0.0000 C   0  0  0  0  0  0  0  0  0  0  0  0
    4.6294    0.1945    0.0000 C   0  0  0  0  0  0  0  0  0  0  0  0
   -1.0643   -0.4118    0.0000 N   0  0  0  0  0  0  0  0  0  0  0  0
   -1.7736    0.0000    0.0000 C   0  0  0  0  0  0  0  0  0  0  0  0
   -1.7736    0.8242    0.0000 C   0  0  0  0  0  0  0  0  0  0  0  0
   -2.4891   -0.4118    0.0000 C   0  0  0  0  0  0  0  0  0  0  0  0
   -2.4891   -1.2360    0.0000 C   0  0  0  0  0  0  0  0  0  0  0  0
   -3.2047   -1.6478    0.0000 C   0  0  0  0  0  0  0  0  0  0  0  0
   -3.9196   -1.2360    0.0000 C   0  0  0  0  0  0  0  0  0  0  0  0
   -3.9196   -0.4118    0.0000 C   0  0  0  0  0  0  0  0  0  0  0  0
   -3.2047    0.0000    0.0000 C   0  0  0  0  0  0  0  0  0  0  0  0
   -4.6294   -1.6478    0.0000 F   0  0  0  0  0  0  0  0  0  0  0  0
    1.7907    1.2360    0.0000 F   0  0  0  0  0  0  0  0  0  0  0  0
  1  2  1  0      
  2  3  2  0      
  3  4  1  0      
  4  5  2  0      
  5  6  1  0      
  1  6  2  0      
  7  8  3  0      
  2  7  1  0      
 10 11  1  0      
 11 12  2  0      
 12 13  1  0      
 13 14  2  0      
 10 14  1  0      
 14 15  1  0      
  9 12  1  0      
  5  9  1  0      
 17 18  1  6      
 19 20  1  0      
 20 21  2  0      
 21 22  1  0      
 22 23  2  0      
 23 24  1  0      
 19 24  2  0      
 22 25  1  0      
 17 19  1  0      
 16 17  1  0      
  1 16  1  0      
  4 26  1  0      
M  END

>  <RackCode>
HYCPK72335

>  <Cat. No.>
HY-10411

>  <Product Name>
AZ960

>  <ROW>
L

>  <COLUMN>
13

>  <CAS No.>
905586-69-8

>  <MWt>
354.36

>  <Target>
Apoptosis; JAK; Parasite; Virus Protease

>  <Saltdate>
Free Base

>  <Smiles>
N#CC1=CC(F)=C(NC2=NNC(C)=C2)N=C1N[C@H](C3=CC=C(F)C=C3)C

>  <Solvent>
DMSO Solution

>  <Batch No.>
23472

>  <Quantity>
10mM  * 50uL

>  <Pathway>
Anti-infection; Apoptosis; Epigenetics; JAK/STAT Signaling; Protein Tyrosine Kinase/RTK; Stem Cell/Wnt

>  <Synonyms>


>  <Formula>
C18H16F2N6

>  <Research_Area>
Cancer

>  <Clinical_Information>
No Development Reported

>  <SUPPLIER>
MedChemExpress

$$$$
Untitled Document
  ChemDraw07311814022D

 45 47  0  0  0  0  0  0  0  0999 V2000
   -8.2164   -1.4438    0.0000 C   0  0  0  0  0  0  0  0  0  0  0  0
   -8.2164   -2.2688    0.0000 C   0  0  0  0  0  0  0  0  0  0  0  0
   -7.5019   -2.6813    0.0000 C   0  0  0  0  0  0  0  0  0  0  0  0
   -6.7875   -2.2688    0.0000 C   0  0  0  0  0  0  0  0  0  0  0  0
   -6.7875   -1.4438    0.0000 C   0  0  0  0  0  0  0  0  0  0  0  0
   -7.5019   -1.0313    0.0000 C   0  0  0  0  0  0  0  0  0  0  0  0
   -6.0730   -1.0313    0.0000 C   0  0  0  0  0  0  0  0  0  0  0  0
   -5.3585   -1.4438    0.0000 O   0  0  0  0  0  0  0  0  0  0  0  0
   -4.6441   -1.0313    0.0000 C   0  0  0  0  0  0  0  0  0  0  0  0
   -3.9296   -1.4438    0.0000 N   0  0  0  0  0  0  0  0  0  0  0  0
   -4.6441   -0.2063    0.0000 O   0  0  0  0  0  0  0  0  0  0  0  0
   -3.2151   -1.0313    0.0000 C   0  0  0  0  0  0  0  0  0  0  0  0
   -2.5006   -1.4438    0.0000 C   0  0  0  0  0  0  0  0  0  0  0  0
   -1.7862   -1.0313    0.0000 C   0  0  0  0  0  0  0  0  0  0  0  0
   -1.0717   -1.4438    0.0000 C   0  0  0  0  0  0  0  0  0  0  0  0
   -0.3572   -1.0313    0.0000 C   0  0  0  0  0  0  0  0  0  0  0  0
    0.3572   -1.4438    0.0000 N   0  0  0  0  0  0  0  0  0  0  0  0
    1.0717   -1.0313    0.0000 C   0  0  0  0  0  0  0  0  0  0  0  0
    1.7862   -1.4438    0.0000 C   0  0  0  0  0  0  0  0  0  0  0  0
    1.0717   -0.2063    0.0000 O   0  0  0  0  0  0  0  0  0  0  0  0
   -3.2151   -0.2063    0.0000 C   0  0  0  0  0  0  0  0  0  0  0  0
   -3.9296    0.2063    0.0000 N   0  0  0  0  0  0  0  0  0  0  0  0
   -2.5006    0.2063    0.0000 O   0  0  0  0  0  0  0  0  0  0  0  0
   -3.9296    1.0313    0.0000 C   0  0  0  0  0  0  0  0  0  0  0  0
   -3.2151    1.4438    0.0000 C   0  0  0  0  0  0  0  0  0  0  0  0
   -3.2151    2.2688    0.0000 C   0  0  0  0  0  0  0  0  0  0  0  0
   -3.9296    2.6813    0.0000 C   0  0  0  0  0  0  0  0  0  0  0  0
   -4.6441    2.2688    0.0000 C   0  0  0  0  0  0  0  0  0  0  0  0
   -4.6441    1.4438    0.0000 C   0  0  0  0  0  0  0  0  0  0  0  0
    2.5006   -1.0313    0.0000 C   0  0  0  0  0  0  0  0  0  0  0  0
    3.2151   -1.4438    0.0000 C   0  0  0  0  0  0  0  0  0  0  0  0
    3.9296   -1.0313    0.0000 N   0  0  0  0  0  0  0  0  0  0  0  0
    4.6441   -1.4438    0.0000 C   0  0  0  0  0  0  0  0  0  0  0  0
    3.2151   -2.2688    0.0000 C   0  0  0  0  0  0  0  0  0  0  0  0
    3.9296   -2.6813    0.0000 O   0  0  0  0  0  0  0  0  0  0  0  0
    2.5006   -2.6813    0.0000 O   0  0  0  0  0  0  0  0  0  0  0  0
    5.3585   -1.0313    0.0000 O   0  0  0  0  0  0  0  0  0  0  0  0
    4.6427   -2.2406    0.0000 O   0  0  0  0  0  0  0  0  0  0  0  0
    6.0730   -1.4438    0.0000 C   0  0  0  0  0  0  0  0  0  0  0  0
    6.7875   -1.0313    0.0000 C   0  0  0  0  0  0  0  0  0  0  0  0
    7.5019   -1.4438    0.0000 C   0  0  0  0  0  0  0  0  0  0  0  0
    8.2164   -1.0313    0.0000 C   0  0  0  0  0  0  0  0  0  0  0  0
    8.2164   -0.2063    0.0000 C   0  0  0  0  0  0  0  0  0  0  0  0
    7.5019    0.2063    0.0000 C   0  0  0  0  0  0  0  0  0  0  0  0
    6.7875   -0.2063    0.0000 C   0  0  0  0  0  0  0  0  0  0  0  0
  1  2  2  0      
  2  3  1  0      
  3  4  2  0      
  4  5  1  0      
  5  6  2  0      
  6  1  1  0      
  5  7  1  0      
  7  8  1  0      
  8  9  1  0      
  9 10  1  0      
  9 11  2  0      
 10 12  1  0      
 12 13  1  0      
 13 14  1  0      
 14 15  1  0      
 15 16  1  0      
 16 17  1  0      
 17 18  1  0      
 18 19  1  0      
 18 20  2  0      
 12 21  1  6      
 21 22  1  0      
 21 23  2  0      
 22 24  1  0      
 24 25  2  0      
 25 26  1  0      
 26 27  2  0      
 27 28  1  0      
 28 29  2  0      
 29 24  1  0      
 19 30  1  0      
 30 31  1  0      
 31 32  1  0      
 32 33  1  0      
 31 34  1  6      
 34 35  1  0      
 34 36  2  0      
 33 37  1  0      
 33 38  2  0      
 37 39  1  0      
 39 40  1  0      
 40 41  2  0      
 41 42  1  0      
 42 43  2  0      
 43 44  1  0      
 44 45  2  0      
 45 40  1  0      
M  END

>  <RackCode>
HYCPK72335

>  <Cat. No.>
HY-112587

>  <Product Name>
MC3482

>  <ROW>
M

>  <COLUMN>
13

>  <CAS No.>
2922280-86-0

>  <MWt>
618.68

>  <Target>
Sirtuin

>  <Saltdate>
Free Acid

>  <Smiles>
O=C(N[C@H](C(NC1=CC=CC=C1)=O)CCCCNC(CC[C@@H](C(O)=O)NC(OCC2=CC=CC=C2)=O)=O)OCC3=CC=CC=C3

>  <Solvent>
DMSO Solution

>  <Batch No.>
40376

>  <Quantity>
10mM  * 50uL

>  <Pathway>
Cell Cycle/DNA Damage; Epigenetics

>  <Synonyms>


>  <Formula>
C33H38N4O8

>  <Research_Area>
Cancer

>  <Clinical_Information>
No Development Reported

>  <SUPPLIER>
MedChemExpress

$$$$
Untitled Document
  ChemDraw10292016392D

 26 29  0  0  0  0  0  0  0  0999 V2000
   -0.2426    1.9184    0.0000 N   0  0  0  0  0  0  0  0  0  0  0  0
    0.5617    1.7348    0.0000 C   0  0  0  0  0  0  0  0  0  0  0  0
    0.9197    0.9915    0.0000 C   0  0  0  0  0  0  0  0  0  0  0  0
    0.5617    0.2482    0.0000 N   0  0  0  0  0  0  0  0  0  0  0  0
   -0.2426    0.0647    0.0000 C   0  0  0  0  0  0  0  0  0  0  0  0
   -0.8876    0.5790    0.0000 C   0  0  0  0  0  0  0  0  0  0  0  0
   -0.8876    1.4040    0.0000 C   0  0  0  0  0  0  0  0  0  0  0  0
    0.4421    3.0643    0.0000 N   0  0  0  0  0  0  0  0  0  0  0  0
    0.9849    2.4431    0.0000 N   0  0  0  0  0  0  0  0  0  0  0  0
   -0.3166    2.7401    0.0000 C   0  0  0  0  0  0  0  0  0  0  0  0
   -1.6722    0.3241    0.0000 C   0  0  0  0  0  0  0  0  0  0  0  0
   -2.1572    0.9915    0.0000 C   0  0  0  0  0  0  0  0  0  0  0  0
   -1.6722    1.6590    0.0000 S   0  0  0  0  0  0  0  0  0  0  0  0
    2.1572    1.7060    0.0000 C   0  0  0  0  0  0  0  0  0  0  0  0
    1.7447    0.9915    0.0000 C   0  0  0  0  0  0  0  0  0  0  0  0
    2.9822    1.7060    0.0000 O   0  0  0  0  0  0  0  0  0  0  0  0
   -1.0310    3.1526    0.0000 C   0  0  0  0  0  0  0  0  0  0  0  0
   -1.9272   -0.4605    0.0000 C   0  0  0  0  0  0  0  0  0  0  0  0
   -2.9822    0.9915    0.0000 C   0  0  0  0  0  0  0  0  0  0  0  0
   -0.4262   -0.7397    0.0000 C   0  0  0  0  0  0  0  0  0  0  0  0
    0.1786   -1.3008    0.0000 C   0  0  0  0  0  0  0  0  0  0  0  0
   -0.0050   -2.1051    0.0000 C   0  0  0  0  0  0  0  0  0  0  0  0
   -0.7933   -2.3483    0.0000 C   0  0  0  0  0  0  0  0  0  0  0  0
   -1.3981   -1.7871    0.0000 C   0  0  0  0  0  0  0  0  0  0  0  0
   -1.2145   -0.9828    0.0000 C   0  0  0  0  0  0  0  0  0  0  0  0
   -0.9769   -3.1526    0.0000 Cl  0  0  0  0  0  0  0  0  0  0  0  0
  1  2  1  0      
  2  3  1  0      
  3  4  1  0      
  4  5  2  0      
  5  6  1  0      
  6  7  2  0      
  1  7  1  0      
  8  9  1  0      
  8 10  2  0      
 10  1  1  0      
  9  2  2  0      
 11 12  2  0      
 12 13  1  0      
 11  6  1  0      
 13  7  1  0      
 14 15  1  0      
 14 16  2  0      
  3 15  1  6      
 10 17  1  0      
 11 18  1  0      
 12 19  1  0      
 20 21  1  0      
 21 22  2  0      
 22 23  1  0      
 23 24  2  0      
 24 25  1  0      
 20 25  2  0      
 23 26  1  0      
  5 20  1  0      
M  END

>  <RackCode>
HYCPK72335

>  <Cat. No.>
HY-131633A

>  <Product Name>
(+)-JQ-1-aldehyde

>  <ROW>
N

>  <COLUMN>
13

>  <CAS No.>
2634778-37-1

>  <MWt>
384.88

>  <Target>
Epigenetic Reader Domain

>  <Saltdate>


>  <Smiles>
O=CC[C@H]1C2=NN=C(C)N2C3=C(C(C)=C(C)S3)C(C4=CC=C(Cl)C=C4)=N1

>  <Solvent>
DMSO Solution

>  <Batch No.>
90341

>  <Quantity>
10mM  * 50uL

>  <Pathway>
Epigenetics

>  <Synonyms>


>  <Formula>
C19H17ClN4OS

>  <Research_Area>
Cancer

>  <Clinical_Information>
No Development Reported

>  <SUPPLIER>
MedChemExpress

$$$$
Untitled Document
  ChemDraw11031613052D

 39 43  0  0  0  0  0  0  0  0999 V2000
   -3.2591    4.1362    0.0000 C   0  0  0  0  0  0  0  0  0  0  0  0
   -3.2591    3.3112    0.0000 C   0  0  0  0  0  0  0  0  0  0  0  0
   -2.5446    2.8987    0.0000 C   0  0  0  0  0  0  0  0  0  0  0  0
   -1.8301    3.3112    0.0000 C   0  0  0  0  0  0  0  0  0  0  0  0
   -1.8301    4.1362    0.0000 C   0  0  0  0  0  0  0  0  0  0  0  0
   -2.5446    4.5487    0.0000 C   0  0  0  0  0  0  0  0  0  0  0  0
   -4.0437    4.3912    0.0000 N   0  0  0  0  0  0  0  0  0  0  0  0
   -4.5286    3.7237    0.0000 C   0  0  0  0  0  0  0  0  0  0  0  0
   -4.0437    3.0563    0.0000 C   0  0  0  0  0  0  0  0  0  0  0  0
   -5.3535    3.7237    0.0000 O   0  0  0  0  0  0  0  0  0  0  0  0
   -1.1157    4.5487    0.0000 Cl  0  0  0  0  0  0  0  0  0  0  0  0
   -1.1157    2.8987    0.0000 C   0  0  0  0  0  0  0  0  0  0  0  0
   -0.4013    3.3112    0.0000 N   0  0  0  0  0  0  0  0  0  0  0  0
   -1.1157    2.0737    0.0000 O   0  0  0  0  0  0  0  0  0  0  0  0
    0.3132    2.8987    0.0000 C   0  0  0  0  0  0  0  0  0  0  0  0
    0.2515    2.0760    0.0000 C   0  0  0  0  0  0  0  0  0  0  0  0
    0.8563    1.5150    0.0000 C   0  0  0  0  0  0  0  0  0  0  0  0
    1.7812    2.0511    0.0000 N   0  0  0  0  0  0  0  0  0  0  0  0
    1.7831    3.1203    0.0000 C   0  0  0  0  0  0  0  0  0  0  0  0
    0.9948    3.3635    0.0000 C   0  0  0  0  0  0  0  0  0  0  0  0
    2.4957    1.6387    0.0000 S   0  0  0  0  0  0  0  0  0  0  0  0
    3.2102    1.2262    0.0000 C   0  0  0  0  0  0  0  0  0  0  0  0
    2.0832    0.9242    0.0000 O   0  0  0  0  0  0  0  0  0  0  0  0
    2.9082    2.3531    0.0000 O   0  0  0  0  0  0  0  0  0  0  0  0
    3.2102    0.4012    0.0000 C   0  0  0  0  0  0  0  0  0  0  0  0
    2.4957   -0.0113    0.0000 C   0  0  0  0  0  0  0  0  0  0  0  0
    2.4957   -0.8363    0.0000 C   0  0  0  0  0  0  0  0  0  0  0  0
    3.2102   -1.2488    0.0000 N   0  0  0  0  0  0  0  0  0  0  0  0
    3.9247   -0.8363    0.0000 C   0  0  0  0  0  0  0  0  0  0  0  0
    3.9247   -0.0113    0.0000 C   0  0  0  0  0  0  0  0  0  0  0  0
    3.2102   -2.0737    0.0000 C   0  0  0  0  0  0  0  0  0  0  0  0
    3.9247   -2.4862    0.0000 C   0  0  0  0  0  0  0  0  0  0  0  0
    3.9247   -3.3112    0.0000 C   0  0  0  0  0  0  0  0  0  0  0  0
    2.0845    2.3523    0.0000 C   0  0  0  0  0  0  0  0  0  0  0  0
    1.6721    1.6379    0.0000 C   0  0  0  0  0  0  0  0  0  0  0  0
    4.6391   -3.7237    0.0000 C   0  0  0  0  0  0  0  0  0  0  0  0
    5.3535   -3.3112    0.0000 F   0  0  0  0  0  0  0  0  0  0  0  0
    5.3535   -4.1362    0.0000 F   0  0  0  0  0  0  0  0  0  0  0  0
    4.6391   -4.5487    0.0000 F   0  0  0  0  0  0  0  0  0  0  0  0
  1  2  2  0      
  2  3  1  0      
  3  4  2  0      
  4  5  1  0      
  5  6  2  0      
  6  1  1  0      
  1  7  1  0      
  7  8  1  0      
  8  9  1  0      
  9  2  1  0      
  8 10  2  0      
  5 11  1  0      
  4 12  1  0      
 12 13  1  0      
 12 14  2  0      
 15 13  1  1      
 15 16  1  0      
 16 17  1  0      
 17 18  1  6      
 19 18  1  6      
 19 20  1  0      
 20 15  1  0      
 18 21  1  0      
 21 22  1  0      
 21 23  2  0      
 21 24  2  0      
 22 25  1  0      
 25 26  1  0      
 26 27  1  0      
 27 28  1  0      
 28 29  1  0      
 29 30  1  0      
 30 25  1  0      
 28 31  1  0      
 31 32  1  0      
 32 33  1  0      
 33 36  1  0      
 19 34  1  0      
 17 35  1  0      
 34 35  1  0      
 36 37  1  0      
 36 38  1  0      
 36 39  1  0      
M  END

>  <RackCode>
HYCPK72335

>  <Cat. No.>
HY-19324

>  <Product Name>
EPZ031686

>  <ROW>
O

>  <COLUMN>
13

>  <CAS No.>
2095161-11-6

>  <MWt>
591.09

>  <Target>
Histone Methyltransferase

>  <Saltdate>
Free Base

>  <Smiles>
O=C(C1)NC2=C1C=C(C(N[C@@H]3C[C@H]4N(S(CC5CCN(CCCC(F)(F)F)CC5)(=O)=O)[C@H](CC4)C3)=O)C(Cl)=C2

>  <Solvent>
DMSO Solution

>  <Batch No.>
132722

>  <Quantity>
10mM  * 50uL

>  <Pathway>
Epigenetics

>  <Synonyms>


>  <Formula>
C26H34ClF3N4O4S

>  <Research_Area>
Cancer

>  <Clinical_Information>
No Development Reported

>  <SUPPLIER>
MedChemExpress

$$$$
Untitled Document
  ChemDraw06222008332D

 43 48  0  0  0  0  0  0  0  0999 V2000
   -2.0232   -1.6500    0.0000 C   0  0  0  0  0  0  0  0  0  0  0  0
   -1.3088   -2.0624    0.0000 C   0  0  0  0  0  0  0  0  0  0  0  0
   -0.5943   -1.6500    0.0000 C   0  0  0  0  0  0  0  0  0  0  0  0
    0.1202   -2.0624    0.0000 C   0  0  0  0  0  0  0  0  0  0  0  0
    0.1202   -2.8874    0.0000 C   0  0  0  0  0  0  0  0  0  0  0  0
   -0.5943   -3.2999    0.0000 C   0  0  0  0  0  0  0  0  0  0  0  0
   -1.3088   -2.8874    0.0000 C   0  0  0  0  0  0  0  0  0  0  0  0
   -2.0232   -0.8250    0.0000 O   0  0  0  0  0  0  0  0  0  0  0  0
   -2.7376   -2.0624    0.0000 N   0  0  0  0  0  0  0  0  0  0  0  0
   -3.4521   -1.6500    0.0000 C   0  0  0  0  0  0  0  0  0  0  0  0
   -4.1666   -2.0624    0.0000 C   0  0  0  0  0  0  0  0  0  0  0  0
   -4.8810   -1.6500    0.0000 C   0  0  0  0  0  0  0  0  0  0  0  0
   -4.8810   -0.8250    0.0000 C   0  0  0  0  0  0  0  0  0  0  0  0
   -4.1666   -0.4125    0.0000 C   0  0  0  0  0  0  0  0  0  0  0  0
   -3.4521   -0.8250    0.0000 C   0  0  0  0  0  0  0  0  0  0  0  0
   -5.5954   -2.0624    0.0000 C   0  0  0  0  0  0  0  0  0  0  0  0
   -6.3099   -2.4749    0.0000 F   0  0  0  0  0  0  0  0  0  0  0  0
   -5.5954   -2.8874    0.0000 F   0  0  0  0  0  0  0  0  0  0  0  0
   -6.3099   -1.6500    0.0000 F   0  0  0  0  0  0  0  0  0  0  0  0
   -5.5954   -0.4125    0.0000 C   0  0  0  0  0  0  0  0  0  0  0  0
   -5.5954    0.4125    0.0000 N   0  0  0  0  0  0  0  0  0  0  0  0
   -4.8810    0.8250    0.0000 C   0  0  0  0  0  0  0  0  0  0  0  0
   -4.8810    1.6500    0.0000 C   0  0  0  0  0  0  0  0  0  0  0  0
   -5.5954    2.0624    0.0000 N   0  0  0  0  0  0  0  0  0  0  0  0
   -6.3099    1.6500    0.0000 C   0  0  0  0  0  0  0  0  0  0  0  0
   -6.3099    0.8250    0.0000 C   0  0  0  0  0  0  0  0  0  0  0  0
   -5.5954    2.8874    0.0000 C   0  0  0  0  0  0  0  0  0  0  0  0
   -6.3099    3.2999    0.0000 C   0  0  0  0  0  0  0  0  0  0  0  0
    2.2635   -1.6500    0.0000 C   0  0  0  0  0  0  0  0  0  0  0  0
    2.2635   -0.8250    0.0000 C   0  0  0  0  0  0  0  0  0  0  0  0
    1.5491   -0.4125    0.0000 C   0  0  0  0  0  0  0  0  0  0  0  0
    0.8346   -0.8250    0.0000 C   0  0  0  0  0  0  0  0  0  0  0  0
    0.8346   -1.6500    0.0000 C   0  0  0  0  0  0  0  0  0  0  0  0
    1.5491   -2.0624    0.0000 N   0  0  0  0  0  0  0  0  0  0  0  0
    3.0481   -1.9048    0.0000 S   0  0  0  0  0  0  0  0  0  0  0  0
    3.5330   -1.2375    0.0000 C   0  0  0  0  0  0  0  0  0  0  0  0
    3.0481   -0.5701    0.0000 N   0  0  0  0  0  0  0  0  0  0  0  0
    4.3580   -1.2375    0.0000 N   0  0  0  0  0  0  0  0  0  0  0  0
    4.7705   -0.5230    0.0000 C   0  0  0  0  0  0  0  0  0  0  0  0
    4.3580    0.1914    0.0000 O   0  0  0  0  0  0  0  0  0  0  0  0
    5.5954   -0.5230    0.0000 C   0  0  0  0  0  0  0  0  0  0  0  0
    6.3099   -0.1105    0.0000 C   0  0  0  0  0  0  0  0  0  0  0  0
    6.3099   -0.9355    0.0000 C   0  0  0  0  0  0  0  0  0  0  0  0
  1  2  1  0      
  2  3  1  0      
  3  4  2  0      
  4  5  1  0      
  5  6  2  0      
  6  7  1  0      
  2  7  2  0      
  1  8  2  0      
  1  9  1  0      
 10 11  1  0      
 11 12  2  0      
 12 13  1  0      
 13 14  2  0      
 14 15  1  0      
 10 15  2  0      
 16 17  1  0      
 16 18  1  0      
 16 19  1  0      
 12 16  1  0      
 21 22  1  0      
 22 23  1  0      
 23 24  1  0      
 24 25  1  0      
 25 26  1  0      
 21 26  1  0      
 27 28  1  0      
 24 27  1  0      
 20 21  1  0      
 13 20  1  0      
  9 10  1  0      
 29 30  1  0      
 30 31  2  0      
 31 32  1  0      
 32 33  2  0      
 33 34  1  0      
 29 34  2  0      
 35 36  1  0      
 36 37  2  0      
 35 29  1  0      
 37 30  1  0      
 39 40  2  0      
 41 42  1  0      
 42 43  1  0      
 41 43  1  0      
 39 41  1  0      
 38 39  1  0      
 36 38  1  0      
  4 33  1  0      
M  END

>  <RackCode>
HYCPK72335

>  <Cat. No.>
HY-15814

>  <Product Name>
HG-7-85-01

>  <ROW>
P

>  <COLUMN>
13

>  <CAS No.>
1258391-13-7

>  <MWt>
608.68

>  <Target>
Apoptosis; Bcr-Abl; c-Kit; JAK; PDGFR; Src

>  <Saltdate>
Free Base

>  <Smiles>
O=C(NC1=CC=C(CN2CCN(CC)CC2)C(C(F)(F)F)=C1)C3=CC=CC(C4=CC=C5C(SC(NC(C6CC6)=O)=N5)=N4)=C3

>  <Solvent>
DMSO Solution

>  <Batch No.>
350913

>  <Quantity>
10mM  * 50uL

>  <Pathway>
Apoptosis; Epigenetics; JAK/STAT Signaling; Protein Tyrosine Kinase/RTK; Stem Cell/Wnt

>  <Synonyms>


>  <Formula>
C31H31F3N6O2S

>  <Research_Area>
Cancer

>  <Clinical_Information>
No Development Reported

>  <SUPPLIER>
MedChemExpress

$$$$
Untitled Document
  ChemDraw04111714352D

 34 38  0  0  0  0  0  0  0  0999 V2000
   -1.8984    2.7608    0.0000 C   0  0  0  0  0  0  0  0  0  0  0  0
   -1.6435    1.9761    0.0000 C   0  0  0  0  0  0  0  0  0  0  0  0
   -0.8365    1.8046    0.0000 N   0  0  0  0  0  0  0  0  0  0  0  0
   -0.2844    2.4177    0.0000 C   0  0  0  0  0  0  0  0  0  0  0  0
   -0.5394    3.2023    0.0000 C   0  0  0  0  0  0  0  0  0  0  0  0
   -1.3464    3.3739    0.0000 N   0  0  0  0  0  0  0  0  0  0  0  0
   -1.6004    4.1557    0.0000 S   0  0  0  0  0  0  0  0  0  0  0  0
   -2.3823    3.9017    0.0000 O   0  0  0  0  0  0  0  0  0  0  0  0
   -0.8185    4.4098    0.0000 O   0  0  0  0  0  0  0  0  0  0  0  0
   -1.8545    4.9376    0.0000 C   0  0  0  0  0  0  0  0  0  0  0  0
   -0.5824    1.0227    0.0000 C   0  0  0  0  0  0  0  0  0  0  0  0
   -1.1345    0.4096    0.0000 C   0  0  0  0  0  0  0  0  0  0  0  0
   -0.8795   -0.3750    0.0000 C   0  0  0  0  0  0  0  0  0  0  0  0
   -0.0725   -0.5465    0.0000 C   0  0  0  0  0  0  0  0  0  0  0  0
    0.4795    0.0666    0.0000 C   0  0  0  0  0  0  0  0  0  0  0  0
    0.2245    0.8512    0.0000 C   0  0  0  0  0  0  0  0  0  0  0  0
    0.1815   -1.3284    0.0000 C   0  0  0  0  0  0  0  0  0  0  0  0
   -0.3034   -1.9959    0.0000 C   0  0  0  0  0  0  0  0  0  0  0  0
    0.1815   -2.6633    0.0000 N   0  0  0  0  0  0  0  0  0  0  0  0
    0.9661   -2.4084    0.0000 C   0  0  0  0  0  0  0  0  0  0  0  0
    0.9661   -1.5834    0.0000 C   0  0  0  0  0  0  0  0  0  0  0  0
    1.6313   -1.1001    0.0000 N   0  0  0  0  0  0  0  0  0  0  0  0
    2.3823   -1.4345    0.0000 C   0  0  0  0  0  0  0  0  0  0  0  0
    1.5453   -0.2825    0.0000 C   0  0  0  0  0  0  0  0  0  0  0  0
   -0.0725   -3.4452    0.0000 C   0  0  0  0  0  0  0  0  0  0  0  0
   -0.8572   -3.7001    0.0000 C   0  0  0  0  0  0  0  0  0  0  0  0
   -0.8572   -4.5251    0.0000 C   0  0  0  0  0  0  0  0  0  0  0  0
   -0.0725   -4.7801    0.0000 C   0  0  0  0  0  0  0  0  0  0  0  0
    0.4124   -4.1126    0.0000 C   0  0  0  0  0  0  0  0  0  0  0  0
   -1.5716   -3.2876    0.0000 C   0  0  0  0  0  0  0  0  0  0  0  0
   -2.2861   -3.7001    0.0000 C   0  0  0  0  0  0  0  0  0  0  0  0
   -2.2861   -4.5251    0.0000 C   0  0  0  0  0  0  0  0  0  0  0  0
   -1.5716   -4.9376    0.0000 C   0  0  0  0  0  0  0  0  0  0  0  0
   -1.5716   -2.4655    0.0000 F   0  0  0  0  0  0  0  0  0  0  0  0
  1  2  1  0      
  2  3  1  0      
  3  4  1  0      
  4  5  1  0      
  5  6  1  0      
  6  1  1  0      
  6  7  1  0      
  7  8  2  0      
  7  9  2  0      
  7 10  1  0      
  3 11  1  0      
 11 12  2  0      
 12 13  1  0      
 13 14  2  0      
 14 15  1  0      
 15 16  2  0      
 16 11  1  0      
 17 14  1  6      
 17 18  1  0      
 18 19  1  0      
 19 20  1  0      
 20 21  1  0      
 21 17  1  0      
 21 22  1  1      
 22 23  1  0      
 22 24  1  0      
 19 25  1  0      
 25 26  1  0      
 26 27  2  0      
 27 28  1  0      
 28 29  1  0      
 29 25  1  0      
 26 30  1  0      
 30 31  2  0      
 31 32  1  0      
 32 33  2  0      
 33 27  1  0      
 30 34  1  0      
M  END

>  <RackCode>
HYCPK72335

>  <Cat. No.>
HY-101512

>  <Product Name>
A-395

>  <ROW>
A

>  <COLUMN>
14

>  <CAS No.>
2089148-72-9

>  <MWt>
486.65

>  <Target>
Histone Methyltransferase

>  <Saltdate>
Free Base

>  <Smiles>
O=S(N1CCN(C2=CC=C([C@H]3CN(C4C(C(F)=CC=C5)=C5CC4)C[C@@H]3N(C)C)C=C2)CC1)(C)=O

>  <Solvent>
DMSO Solution

>  <Batch No.>
80861

>  <Quantity>
10mM  * 50uL

>  <Pathway>
Epigenetics

>  <Synonyms>


>  <Formula>
C26H35FN4O2S

>  <Research_Area>
Cancer

>  <Clinical_Information>
No Development Reported

>  <SUPPLIER>
MedChemExpress

$$$$
Untitled Document
  ChemDraw11082115302D

 32 35  0  0  0  0  0  0  0  0999 V2000
   -2.4063   -0.4301    0.0000 C   0  0  0  0  0  0  0  0  0  0  0  0
   -2.9897   -1.0134    0.0000 O   0  0  0  0  0  0  0  0  0  0  0  0
   -1.6094   -0.6436    0.0000 C   0  0  0  0  0  0  0  0  0  0  0  0
   -1.3959   -1.4405    0.0000 C   0  0  0  0  0  0  0  0  0  0  0  0
   -0.5990   -1.6540    0.0000 C   0  0  0  0  0  0  0  0  0  0  0  0
   -0.0156   -1.0707    0.0000 C   0  0  0  0  0  0  0  0  0  0  0  0
   -0.2292   -0.2738    0.0000 C   0  0  0  0  0  0  0  0  0  0  0  0
   -1.0261   -0.0602    0.0000 C   0  0  0  0  0  0  0  0  0  0  0  0
    0.7813   -1.2842    0.0000 O   0  0  0  0  0  0  0  0  0  0  0  0
    1.3646   -0.7008    0.0000 C   0  0  0  0  0  0  0  0  0  0  0  0
    2.1615   -0.9144    0.0000 C   0  0  0  0  0  0  0  0  0  0  0  0
    2.7449   -0.3310    0.0000 C   0  0  0  0  0  0  0  0  0  0  0  0
    3.5418   -0.5445    0.0000 N   0  0  0  0  0  0  0  0  0  0  0  0
    4.1829   -0.0253    0.0000 C   0  0  0  0  0  0  0  0  0  0  0  0
    4.8748   -0.4747    0.0000 C   0  0  0  0  0  0  0  0  0  0  0  0
    4.6613   -1.2715    0.0000 C   0  0  0  0  0  0  0  0  0  0  0  0
    3.8374   -1.3147    0.0000 C   0  0  0  0  0  0  0  0  0  0  0  0
    0.3542    0.3096    0.0000 I   0  0  0  0  0  0  0  0  0  0  0  0
   -0.3855   -2.4509    0.0000 I   0  0  0  0  0  0  0  0  0  0  0  0
   -2.6612    1.6894    0.0000 O   0  0  0  0  0  0  0  0  0  0  0  0
   -2.1763    1.0220    0.0000 C   0  0  0  0  0  0  0  0  0  0  0  0
   -2.6612    0.3545    0.0000 C   0  0  0  0  0  0  0  0  0  0  0  0
   -3.4459    0.6095    0.0000 C   0  0  0  0  0  0  0  0  0  0  0  0
   -3.4459    1.4345    0.0000 C   0  0  0  0  0  0  0  0  0  0  0  0
   -4.1603    0.1970    0.0000 C   0  0  0  0  0  0  0  0  0  0  0  0
   -4.8748    0.6095    0.0000 C   0  0  0  0  0  0  0  0  0  0  0  0
   -4.8748    1.4345    0.0000 C   0  0  0  0  0  0  0  0  0  0  0  0
   -4.1603    1.8470    0.0000 C   0  0  0  0  0  0  0  0  0  0  0  0
   -1.3513    1.0220    0.0000 C   0  0  0  0  0  0  0  0  0  0  0  0
   -0.9388    1.7364    0.0000 C   0  0  0  0  0  0  0  0  0  0  0  0
   -0.1138    1.7364    0.0000 C   0  0  0  0  0  0  0  0  0  0  0  0
    0.2987    2.4509    0.0000 C   0  0  0  0  0  0  0  0  0  0  0  0
  1  2  2  0      
  3  4  1  0      
  4  5  2  0      
  5  6  1  0      
  6  7  2  0      
  7  8  1  0      
  3  8  2  0      
 10 11  1  0      
 11 12  1  0      
  9 10  1  0      
 13 14  1  0      
 14 15  1  0      
 15 16  1  0      
 16 17  1  0      
 13 17  1  0      
 12 13  1  0      
  6  9  1  0      
  7 18  1  0      
  5 19  1  0      
  1  3  1  0      
 20 21  1  0      
 21 22  2  0      
 22 23  1  0      
 23 24  1  0      
 20 24  1  0      
 25 26  1  0      
 26 27  2  0      
 27 28  1  0      
 24 28  2  0      
 23 25  2  0      
 29 30  1  0      
 30 31  1  0      
 31 32  1  0      
 21 29  1  0      
  1 22  1  0      
M  END

>  <RackCode>
HYCPK72335

>  <Cat. No.>
HY-139742

>  <Product Name>
ADTL-SA1215

>  <ROW>
B

>  <COLUMN>
14

>  <CAS No.>
782387-91-1

>  <MWt>
657.32

>  <Target>
Sirtuin

>  <Saltdate>


>  <Smiles>
O=C(C1=C(CCCC)OC2=CC=CC=C12)C3=CC(I)=C(OCCCN4CCCC4)C(I)=C3

>  <Solvent>
DMSO Solution

>  <Batch No.>
228033

>  <Quantity>
10mM  * 50uL

>  <Pathway>
Cell Cycle/DNA Damage; Epigenetics

>  <Synonyms>


>  <Formula>
C26H29I2NO3

>  <Research_Area>
Cancer

>  <Clinical_Information>
No Development Reported

>  <SUPPLIER>
MedChemExpress

$$$$
Untitled Document
  ChemDraw03171709112D

 42 47  0  0  0  0  0  0  0  0999 V2000
   -0.3572    1.6913    0.0000 C   0  0  0  0  0  0  0  0  0  0  0  0
   -0.3572    0.8663    0.0000 C   0  0  0  0  0  0  0  0  0  0  0  0
   -1.0717    0.4538    0.0000 C   0  0  0  0  0  0  0  0  0  0  0  0
   -1.7862    0.8663    0.0000 C   0  0  0  0  0  0  0  0  0  0  0  0
   -1.7862    1.6913    0.0000 C   0  0  0  0  0  0  0  0  0  0  0  0
   -1.0717    2.1038    0.0000 O   0  0  0  0  0  0  0  0  0  0  0  0
   -2.5006    2.1038    0.0000 C   0  0  0  0  0  0  0  0  0  0  0  0
   -3.2151    1.6913    0.0000 C   0  0  0  0  0  0  0  0  0  0  0  0
   -3.2151    0.8663    0.0000 C   0  0  0  0  0  0  0  0  0  0  0  0
   -2.5006    0.4538    0.0000 C   0  0  0  0  0  0  0  0  0  0  0  0
    1.0717   -1.2788    0.0000 C   0  0  0  0  0  0  0  0  0  0  0  0
    1.0717   -2.1038    0.0000 C   0  0  0  0  0  0  0  0  0  0  0  0
    0.3572   -2.5163    0.0000 C   0  0  0  0  0  0  0  0  0  0  0  0
   -0.3572   -2.1038    0.0000 C   0  0  0  0  0  0  0  0  0  0  0  0
   -0.3572   -1.2788    0.0000 C   0  0  0  0  0  0  0  0  0  0  0  0
    0.3572   -0.8663    0.0000 O   0  0  0  0  0  0  0  0  0  0  0  0
   -1.0717   -0.8663    0.0000 C   0  0  0  0  0  0  0  0  0  0  0  0
   -1.7862   -1.2788    0.0000 C   0  0  0  0  0  0  0  0  0  0  0  0
   -1.7862   -2.1038    0.0000 C   0  0  0  0  0  0  0  0  0  0  0  0
   -1.0717   -2.5163    0.0000 C   0  0  0  0  0  0  0  0  0  0  0  0
    0.3572    0.4538    0.0000 O   0  0  0  0  0  0  0  0  0  0  0  0
    1.7862   -2.5163    0.0000 O   0  0  0  0  0  0  0  0  0  0  0  0
   -2.5006   -0.3713    0.0000 O   0  0  0  0  0  0  0  0  0  0  0  0
   -1.0717   -3.3413    0.0000 O   0  0  0  0  0  0  0  0  0  0  0  0
   -3.9296    2.1038    0.0000 O   0  0  0  0  0  0  0  0  0  0  0  0
   -2.5006   -0.8663    0.0000 O   0  0  0  0  0  0  0  0  0  0  0  0
    1.7862   -0.8663    0.0000 C   0  0  0  0  0  0  0  0  0  0  0  0
    2.5006   -1.2788    0.0000 C   0  0  0  0  0  0  0  0  0  0  0  0
    3.2151   -0.8663    0.0000 C   0  0  0  0  0  0  0  0  0  0  0  0
    3.2151   -0.0413    0.0000 C   0  0  0  0  0  0  0  0  0  0  0  0
    2.5006    0.3713    0.0000 C   0  0  0  0  0  0  0  0  0  0  0  0
    1.7862   -0.0413    0.0000 C   0  0  0  0  0  0  0  0  0  0  0  0
    3.9296    0.3713    0.0000 O   0  0  0  0  0  0  0  0  0  0  0  0
    3.9296   -1.2788    0.0000 O   0  0  0  0  0  0  0  0  0  0  0  0
    0.3572    2.1038    0.0000 C   0  0  0  0  0  0  0  0  0  0  0  0
    1.0717    1.6913    0.0000 C   0  0  0  0  0  0  0  0  0  0  0  0
    1.7862    2.1038    0.0000 C   0  0  0  0  0  0  0  0  0  0  0  0
    1.7862    2.9288    0.0000 C   0  0  0  0  0  0  0  0  0  0  0  0
    1.0717    3.3413    0.0000 C   0  0  0  0  0  0  0  0  0  0  0  0
    0.3572    2.9288    0.0000 C   0  0  0  0  0  0  0  0  0  0  0  0
    2.5006    3.3413    0.0000 O   0  0  0  0  0  0  0  0  0  0  0  0
    2.5006    1.6913    0.0000 O   0  0  0  0  0  0  0  0  0  0  0  0
  1  2  1  0      
  2  3  1  0      
  3  4  1  0      
  4  5  1  0      
  5  6  1  0      
  1  6  1  0      
  7  8  1  0      
  8  9  2  0      
  9 10  1  0      
  4 10  2  0      
  5  7  2  0      
 11 12  1  0      
 12 13  1  0      
 13 14  1  0      
 14 15  1  0      
 15 16  1  0      
 11 16  1  0      
 17 18  1  0      
 18 19  2  0      
 19 20  1  0      
 14 20  2  0      
 15 17  2  0      
  3 17  1  6      
  2 21  1  1      
 12 22  1  1      
 10 23  1  0      
 20 24  1  0      
  8 25  1  0      
 18 26  1  0      
 27 28  1  0      
 28 29  2  0      
 29 30  1  0      
 30 31  2  0      
 31 32  1  0      
 27 32  2  0      
 30 33  1  0      
 29 34  1  0      
 11 27  1  6      
 35 36  1  0      
 36 37  2  0      
 37 38  1  0      
 38 39  2  0      
 39 40  1  0      
 35 40  2  0      
 38 41  1  0      
 37 42  1  0      
  1 35  1  6      
M  END

>  <RackCode>
HYCPK72335

>  <Cat. No.>
HY-N2345

>  <Product Name>
Procyanidin B3

>  <ROW>
C

>  <COLUMN>
14

>  <CAS No.>
23567-23-9

>  <MWt>
578.52

>  <Target>
Androgen Receptor; Histone Acetyltransferase; Toll-like Receptor (TLR)

>  <Saltdate>
Free Base

>  <Smiles>
O[C@@H]1[C@@H](C2=CC=C(O)C(O)=C2)OC3=CC(O)=CC(O)=C3[C@H]1C4=C5C(C[C@H](O)[C@@H](C6=CC=C(O)C(O)=C6)O5)=C(O)C=C4O

>  <Solvent>
DMSO Solution

>  <Batch No.>
126941

>  <Quantity>
10mM  * 50uL

>  <Pathway>
Epigenetics; Immunology/Inflammation; Vitamin D Related/Nuclear Receptor

>  <Synonyms>


>  <Formula>
C30H26O12

>  <Research_Area>
Cancer; Inflammation/Immunology

>  <Clinical_Information>
No Development Reported

>  <SUPPLIER>
MedChemExpress

$$$$
Untitled Document
  ChemDraw06131809082D

 29 31  0  0  0  0  0  0  0  0999 V2000
    1.4438    0.7145    0.0000 C   0  0  0  0  0  0  0  0  0  0  0  0
    2.2688    0.7145    0.0000 C   0  0  0  0  0  0  0  0  0  0  0  0
    2.6813    1.4289    0.0000 C   0  0  0  0  0  0  0  0  0  0  0  0
    2.2688    2.1434    0.0000 C   0  0  0  0  0  0  0  0  0  0  0  0
    1.4438    2.1434    0.0000 C   0  0  0  0  0  0  0  0  0  0  0  0
    1.0313    1.4289    0.0000 C   0  0  0  0  0  0  0  0  0  0  0  0
    0.2063    1.4289    0.0000 C   0  0  0  0  0  0  0  0  0  0  0  0
    2.6813    0.0000    0.0000 C   0  0  0  0  0  0  0  0  0  0  0  0
    2.2688   -0.7145    0.0000 C   0  0  0  0  0  0  0  0  0  0  0  0
    2.6813   -1.4289    0.0000 C   0  0  0  0  0  0  0  0  0  0  0  0
    3.5063   -1.4289    0.0000 C   0  0  0  0  0  0  0  0  0  0  0  0
    3.9188   -0.7145    0.0000 C   0  0  0  0  0  0  0  0  0  0  0  0
    3.5063    0.0000    0.0000 C   0  0  0  0  0  0  0  0  0  0  0  0
    3.9188   -2.1434    0.0000 N   0  0  0  0  0  0  0  0  0  0  0  0
    4.7438   -2.1434    0.0000 C   0  0  0  0  0  0  0  0  0  0  0  0
    5.1563   -1.4289    0.0000 C   0  0  0  0  0  0  0  0  0  0  0  0
    4.7438   -0.7145    0.0000 C   0  0  0  0  0  0  0  0  0  0  0  0
    2.2688   -2.1434    0.0000 O   0  0  0  0  0  0  0  0  0  0  0  0
   -0.2062    0.7145    0.0000 N   0  0  0  0  0  0  0  0  0  0  0  0
   -0.2062    2.1434    0.0000 O   0  0  0  0  0  0  0  0  0  0  0  0
   -1.0313    0.7145    0.0000 C   0  0  0  0  0  0  0  0  0  0  0  0
   -1.4437    0.0000    0.0000 C   0  0  0  0  0  0  0  0  0  0  0  0
   -2.2687    0.0000    0.0000 C   0  0  0  0  0  0  0  0  0  0  0  0
   -2.6813   -0.7145    0.0000 C   0  0  0  0  0  0  0  0  0  0  0  0
   -3.5063   -0.7145    0.0000 C   0  0  0  0  0  0  0  0  0  0  0  0
   -3.9188   -1.4289    0.0000 C   0  0  0  0  0  0  0  0  0  0  0  0
   -4.7438   -1.4289    0.0000 N   0  0  0  0  0  0  0  0  0  0  0  0
   -5.1563   -2.1434    0.0000 C   0  0  0  0  0  0  0  0  0  0  0  0
   -5.1563   -0.7145    0.0000 C   0  0  0  0  0  0  0  0  0  0  0  0
  1  2  2  0      
  2  3  1  0      
  3  4  2  0      
  4  5  1  0      
  5  6  2  0      
  6  1  1  0      
  6  7  1  0      
  2  8  1  0      
  8  9  2  0      
  9 10  1  0      
 10 11  2  0      
 11 12  1  0      
 12 13  2  0      
 13  8  1  0      
 11 14  1  0      
 14 15  2  0      
 15 16  1  0      
 16 17  2  0      
 17 12  1  0      
 10 18  1  0      
  7 19  1  0      
  7 20  2  0      
 19 21  1  0      
 21 22  1  0      
 22 23  1  0      
 23 24  1  0      
 24 25  1  0      
 25 26  1  0      
 26 27  1  0      
 27 28  1  0      
 27 29  1  0      
M  END

>  <RackCode>
HYCPK72335

>  <Cat. No.>
HY-112308

>  <Product Name>
NCGC00247743

>  <ROW>
D

>  <COLUMN>
14

>  <CAS No.>
1435192-04-3

>  <MWt>
391.51

>  <Target>
Histone Demethylase

>  <Saltdate>
Free Base

>  <Smiles>
OC1=C(N=CC=C2)C2=CC(C3=CC(C(NCCCCCCN(C)C)=O)=CC=C3)=C1

>  <Solvent>
DMSO Solution

>  <Batch No.>
252448

>  <Quantity>
10mM  * 50uL

>  <Pathway>
Epigenetics

>  <Synonyms>


>  <Formula>
C24H29N3O2

>  <Research_Area>
Cancer

>  <Clinical_Information>
No Development Reported

>  <SUPPLIER>
MedChemExpress

$$$$
Untitled Document
  ChemDraw01041916052D

 25 27  0  0  0  0  0  0  0  0999 V2000
    2.5006    2.6813    0.0000 Cl  0  0  0  0  0  0  0  0  0  0  0  0
    1.7862    2.2688    0.0000 C   0  0  0  0  0  0  0  0  0  0  0  0
    1.0717    2.6813    0.0000 C   0  0  0  0  0  0  0  0  0  0  0  0
    0.3572    2.2688    0.0000 C   0  0  0  0  0  0  0  0  0  0  0  0
    0.3572    1.4438    0.0000 C   0  0  0  0  0  0  0  0  0  0  0  0
   -0.3572    1.0313    0.0000 S   0  0  0  0  0  0  0  0  0  0  0  0
   -1.0717    0.6187    0.0000 N   0  0  0  0  0  0  0  0  0  0  0  0
   -1.0717   -0.2063    0.0000 C   0  0  0  0  0  0  0  0  0  0  0  0
   -0.3572   -0.6188    0.0000 C   0  0  0  0  0  0  0  0  0  0  0  0
   -0.3572   -1.4438    0.0000 C   0  0  0  0  0  0  0  0  0  0  0  0
   -1.0717   -1.8563    0.0000 C   0  0  0  0  0  0  0  0  0  0  0  0
   -1.0717   -2.6813    0.0000 O   0  0  0  0  0  0  0  0  0  0  0  0
   -1.7862   -1.4438    0.0000 C   0  0  0  0  0  0  0  0  0  0  0  0
   -1.7862   -0.6188    0.0000 C   0  0  0  0  0  0  0  0  0  0  0  0
   -2.5006   -0.2063    0.0000 C   0  0  0  0  0  0  0  0  0  0  0  0
   -3.2151   -0.6188    0.0000 C   0  0  0  0  0  0  0  0  0  0  0  0
   -3.2151   -1.4438    0.0000 C   0  0  0  0  0  0  0  0  0  0  0  0
   -2.5006   -1.8563    0.0000 C   0  0  0  0  0  0  0  0  0  0  0  0
    0.0553    0.3168    0.0000 O   0  0  0  0  0  0  0  0  0  0  0  0
   -0.7697    1.7457    0.0000 O   0  0  0  0  0  0  0  0  0  0  0  0
    1.0717    1.0313    0.0000 C   0  0  0  0  0  0  0  0  0  0  0  0
    1.7862    1.4438    0.0000 C   0  0  0  0  0  0  0  0  0  0  0  0
    2.5006    1.0313    0.0000 N   0  3  0  0  0  0  0  0  0  0  0  0
    3.2151    1.4438    0.0000 O   0  5  0  0  0  0  0  0  0  0  0  0
    2.5006    0.2062    0.0000 O   0  0  0  0  0  0  0  0  0  0  0  0
  1  2  1  0      
  2  3  2  0      
  3  4  1  0      
  4  5  2  0      
  5  6  1  0      
  6  7  1  0      
  7  8  1  0      
  8  9  2  0      
  9 10  1  0      
 10 11  2  0      
 11 12  1  0      
 11 13  1  0      
 13 14  2  0      
  8 14  1  0      
 14 15  1  0      
 15 16  2  0      
 16 17  1  0      
 17 18  2  0      
 13 18  1  0      
  6 19  2  0      
  6 20  2  0      
  5 21  1  0      
 21 22  2  0      
  2 22  1  0      
 22 23  1  0      
 23 24  1  0      
 23 25  2  0      
M  CHG  2  23   1  24  -1
M  END

>  <RackCode>
HYCPK72335

>  <Cat. No.>
HY-123346

>  <Product Name>
SW155246

>  <ROW>
E

>  <COLUMN>
14

>  <CAS No.>
420092-79-1

>  <MWt>
378.79

>  <Target>
DNA Methyltransferase

>  <Saltdate>


>  <Smiles>
ClC1=CC=C(C=C1[N+]([O-])=O)S(NC2=CC=C(C3=C2C=CC=C3)O)(=O)=O

>  <Solvent>
DMSO Solution

>  <Batch No.>
279042

>  <Quantity>
10mM  * 50uL

>  <Pathway>
Epigenetics

>  <Synonyms>


>  <Formula>
C16H11ClN2O5S

>  <Research_Area>
Cancer

>  <Clinical_Information>
No Development Reported

>  <SUPPLIER>
MedChemExpress

$$$$
Untitled Document
  ChemDraw04171717032D

 32 35  0  0  0  0  0  0  0  0999 V2000
   -2.8334   -2.6811    0.0000 N   0  0  0  0  0  0  0  0  0  0  0  0
   -2.1189   -3.0937    0.0000 C   0  0  0  0  0  0  0  0  0  0  0  0
   -1.4044   -2.6811    0.0000 C   0  0  0  0  0  0  0  0  0  0  0  0
   -1.4044   -1.8562    0.0000 N   0  0  0  0  0  0  0  0  0  0  0  0
   -2.1189   -1.4437    0.0000 C   0  0  0  0  0  0  0  0  0  0  0  0
   -2.8334   -1.8562    0.0000 C   0  0  0  0  0  0  0  0  0  0  0  0
   -0.6900   -3.0937    0.0000 C   0  0  0  0  0  0  0  0  0  0  0  0
    2.0084   -1.0313    0.0000 C   0  0  0  0  0  0  0  0  0  0  0  0
    1.5235   -0.3638    0.0000 N   0  0  0  0  0  0  0  0  0  0  0  0
    0.7388   -0.6187    0.0000 C   0  0  0  0  0  0  0  0  0  0  0  0
    0.7388   -1.4437    0.0000 C   0  0  0  0  0  0  0  0  0  0  0  0
    1.5235   -1.6987    0.0000 N   0  0  0  0  0  0  0  0  0  0  0  0
    0.0244   -1.8562    0.0000 C   0  0  0  0  0  0  0  0  0  0  0  0
   -0.6900   -1.4437    0.0000 C   0  0  0  0  0  0  0  0  0  0  0  0
   -0.6900   -0.6187    0.0000 C   0  0  0  0  0  0  0  0  0  0  0  0
    0.0244   -0.2062    0.0000 C   0  0  0  0  0  0  0  0  0  0  0  0
    2.8334   -1.0313    0.0000 O   0  0  0  0  0  0  0  0  0  0  0  0
   -1.4044   -0.2062    0.0000 N   0  0  0  0  0  0  0  0  0  0  0  0
    1.7784   -2.4833    0.0000 C   0  0  0  0  0  0  0  0  0  0  0  0
    1.7784    0.4208    0.0000 C   0  0  0  0  0  0  0  0  0  0  0  0
   -1.4044    0.6187    0.0000 C   0  0  0  0  0  0  0  0  0  0  0  0
   -0.6900    1.0313    0.0000 C   0  0  0  0  0  0  0  0  0  0  0  0
   -0.6900    1.8562    0.0000 C   0  0  0  0  0  0  0  0  0  0  0  0
    0.0244    2.2687    0.0000 C   0  0  0  0  0  0  0  0  0  0  0  0
    0.7388    1.8562    0.0000 C   0  0  0  0  0  0  0  0  0  0  0  0
    0.7388    1.0313    0.0000 C   0  0  0  0  0  0  0  0  0  0  0  0
    0.0244    0.6187    0.0000 C   0  0  0  0  0  0  0  0  0  0  0  0
   -2.1189    1.0313    0.0000 O   0  0  0  0  0  0  0  0  0  0  0  0
   -1.4044    2.2687    0.0000 O   0  0  0  0  0  0  0  0  0  0  0  0
   -1.4044    3.0937    0.0000 C   0  0  0  0  0  0  0  0  0  0  0  0
   -2.1189   -0.6187    0.0000 C   0  0  0  0  0  0  0  0  0  0  0  0
   -2.8334   -0.2062    0.0000 C   0  0  0  0  0  0  0  0  0  0  0  0
  1  2  1  0      
  2  3  1  0      
  3  4  1  0      
  4  5  1  0      
  5  6  1  0      
  1  6  1  0      
  3  7  1  6      
  8  9  1  0      
  9 10  1  0      
 10 11  1  0      
 11 12  1  0      
  8 12  1  0      
 13 14  1  0      
 14 15  2  0      
 15 16  1  0      
 16 10  2  0      
 13 11  2  0      
  8 17  2  0      
 15 18  1  0      
 12 19  1  0      
  9 20  1  0      
  4 14  1  0      
 21 22  1  0      
 22 23  1  0      
 23 24  2  0      
 24 25  1  0      
 25 26  2  0      
 26 27  1  0      
 22 27  2  0      
 21 28  2  0      
 29 30  1  0      
 23 29  1  0      
 21 18  1  0      
 18 31  1  0      
 31 32  1  0      
M  END

>  <RackCode>
HYCPK72335

>  <Cat. No.>
HY-100729

>  <Product Name>
GSK9311

>  <ROW>
F

>  <COLUMN>
14

>  <CAS No.>
1923851-49-3

>  <MWt>
437.53

>  <Target>
Epigenetic Reader Domain

>  <Saltdate>
Free Base

>  <Smiles>
C[C@@H]1CNCCN1C2=C(N(CC)C(C3=CC=CC=C3OC)=O)C=C(C(N4C)=C2)N(C)C4=O

>  <Solvent>
DMSO Solution

>  <Batch No.>
25027

>  <Quantity>
10mM  * 50uL

>  <Pathway>
Epigenetics

>  <Synonyms>


>  <Formula>
C24H31N5O3

>  <Research_Area>
Cancer

>  <Clinical_Information>
No Development Reported

>  <SUPPLIER>
MedChemExpress

$$$$
Untitled Document
  ChemDraw06271314402D

 21 23  0  0  0  0  0  0  0  0999 V2000
   -1.8763    0.6181    0.0000 C   0  0  0  0  0  0  0  0  0  0  0  0
   -1.8763   -0.2069    0.0000 C   0  0  0  0  0  0  0  0  0  0  0  0
   -1.1619   -0.6194    0.0000 C   0  0  0  0  0  0  0  0  0  0  0  0
   -0.4474   -0.2069    0.0000 C   0  0  0  0  0  0  0  0  0  0  0  0
   -0.4474    0.6181    0.0000 C   0  0  0  0  0  0  0  0  0  0  0  0
   -1.1619    1.0306    0.0000 C   0  0  0  0  0  0  0  0  0  0  0  0
    0.2671   -0.6194    0.0000 N   0  0  0  0  0  0  0  0  0  0  0  0
    0.9815   -0.2069    0.0000 C   0  0  0  0  0  0  0  0  0  0  0  0
    1.6960   -0.6194    0.0000 C   0  0  0  0  0  0  0  0  0  0  0  0
    2.4105   -0.2069    0.0000 C   0  0  0  0  0  0  0  0  0  0  0  0
    2.4105    0.6181    0.0000 C   0  0  0  0  0  0  0  0  0  0  0  0
    1.6960    1.0306    0.0000 C   0  0  0  0  0  0  0  0  0  0  0  0
    0.9815    0.6181    0.0000 C   0  0  0  0  0  0  0  0  0  0  0  0
   -2.6732    0.8316    0.0000 N   0  0  0  0  0  0  0  0  0  0  0  0
   -3.1226    0.1397    0.0000 O   0  0  0  0  0  0  0  0  0  0  0  0
   -2.6034   -0.5015    0.0000 N   0  0  0  0  0  0  0  0  0  0  0  0
    1.6960    1.8556    0.0000 Cl  0  0  0  0  0  0  0  0  0  0  0  0
    3.1226   -0.6181    0.0000 F   0  0  0  0  0  0  0  0  0  0  0  0
   -1.1619   -1.4444    0.0000 N   0  3  0  0  0  0  0  0  0  0  0  0
   -1.8739   -1.8556    0.0000 O   0  0  0  0  0  0  0  0  0  0  0  0
   -0.4498   -1.8556    0.0000 O   0  5  0  0  0  0  0  0  0  0  0  0
  1  2  1  0      
  2  3  1  0      
  3  4  2  0      
  4  5  1  0      
  5  6  2  0      
  6  1  1  0      
  4  7  1  0      
  7  8  1  0      
  8  9  2  0      
  9 10  1  0      
 10 11  2  0      
 11 12  1  0      
 12 13  2  0      
 13  8  1  0      
  1 14  2  0      
 14 15  1  0      
 15 16  1  0      
 16  2  2  0      
  3 19  1  0      
 12 17  1  0      
 10 18  1  0      
 19 20  2  0      
 19 21  1  0      
M  CHG  2  19   1  21  -1
M  END

>  <RackCode>
HYCPK72335

>  <Cat. No.>
HY-18371

>  <Product Name>
TC-S 7009

>  <ROW>
G

>  <COLUMN>
14

>  <CAS No.>
1422955-31-4

>  <MWt>
308.65

>  <Target>
HIF/HIF Prolyl-Hydroxylase

>  <Saltdate>


>  <Smiles>
ClC1=CC(NC2=C([N+]([O-])=O)C3=NON=C3C=C2)=CC(F)=C1

>  <Solvent>
DMSO Solution

>  <Batch No.>
79605

>  <Quantity>
10mM  * 50uL

>  <Pathway>
Metabolic Enzyme/Protease

>  <Synonyms>


>  <Formula>
C12H6ClFN4O3

>  <Research_Area>
Inflammation/Immunology

>  <Clinical_Information>
No Development Reported

>  <SUPPLIER>
MedChemExpress

$$$$
Untitled Document
  ChemDraw10181809332D

 32 34  0  0  0  0  0  0  0  0999 V2000
   -1.3386    1.4820    0.0000 C   0  0  0  0  0  0  0  0  0  0  0  0
    0.0755   -0.1817    0.0000 C   0  0  0  0  0  0  0  0  0  0  0  0
    0.0755   -1.0067    0.0000 C   0  0  0  0  0  0  0  0  0  0  0  0
    0.7900   -1.4192    0.0000 N   0  0  0  0  0  0  0  0  0  0  0  0
    1.5045   -1.0067    0.0000 C   0  0  0  0  0  0  0  0  0  0  0  0
    1.5045   -0.1817    0.0000 N   0  0  0  0  0  0  0  0  0  0  0  0
    0.7900    0.2308    0.0000 C   0  0  0  0  0  0  0  0  0  0  0  0
    0.7900    1.0529    0.0000 N   0  0  0  0  0  0  0  0  0  0  0  0
    0.0780    1.4640    0.0000 C   0  0  0  0  0  0  0  0  0  0  0  0
   -0.6340    1.0529    0.0000 C   0  0  0  0  0  0  0  0  0  0  0  0
    2.2164   -1.4178    0.0000 C   0  0  0  0  0  0  0  0  0  0  0  0
   -0.6365   -1.4178    0.0000 N   0  0  0  0  0  0  0  0  0  0  0  0
   -1.3181   -0.9530    0.0000 C   0  0  0  0  0  0  0  0  0  0  0  0
   -2.1065   -1.1962    0.0000 C   0  0  0  0  0  0  0  0  0  0  0  0
   -2.4079   -1.9642    0.0000 C   0  0  0  0  0  0  0  0  0  0  0  0
   -1.9954   -2.6787    0.0000 C   0  0  0  0  0  0  0  0  0  0  0  0
   -1.1796   -2.8016    0.0000 C   0  0  0  0  0  0  0  0  0  0  0  0
   -0.5748   -2.2405    0.0000 C   0  0  0  0  0  0  0  0  0  0  0  0
    2.2164   -2.2428    0.0000 C   0  0  0  0  0  0  0  0  0  0  0  0
    2.9309   -2.6553    0.0000 C   0  0  0  0  0  0  0  0  0  0  0  0
    3.6454   -2.2428    0.0000 C   0  0  0  0  0  0  0  0  0  0  0  0
    3.6454   -1.4178    0.0000 C   0  0  0  0  0  0  0  0  0  0  0  0
    2.9309   -1.0053    0.0000 N   0  0  0  0  0  0  0  0  0  0  0  0
   -3.2329   -1.9642    0.0000 C   0  0  0  0  0  0  0  0  0  0  0  0
   -3.6454   -2.6787    0.0000 C   0  0  0  0  0  0  0  0  0  0  0  0
   -3.2329   -3.3931    0.0000 C   0  0  0  0  0  0  0  0  0  0  0  0
   -2.4079   -3.3931    0.0000 C   0  0  0  0  0  0  0  0  0  0  0  0
   -2.0600    1.0878    0.0000 O   0  0  0  0  0  0  0  0  0  0  0  0
   -1.3193    2.3039    0.0000 O   0  0  0  0  0  0  0  0  0  0  0  0
   -2.0214    2.7316    0.0000 C   0  0  0  0  0  0  0  0  0  0  0  0
   -2.0021    3.5535    0.0000 C   0  0  0  0  0  0  0  0  0  0  0  0
    0.3347   -3.5535    0.0000 Cl  0  0  0  0  0  0  0  0  0  0  0  0
  2  3  2  0      
  3  4  1  0      
  4  5  2  0      
  5  6  1  0      
  6  7  2  0      
  7  2  1  0      
  7  8  1  0      
  8  9  1  0      
  9 10  1  0      
  5 11  1  0      
  3 12  1  0      
 12 13  1  0      
 13 14  1  0      
 14 15  1  0      
 15 16  2  0      
 16 17  1  0      
 17 18  1  0      
 18 12  1  0      
 11 19  2  0      
 19 20  1  0      
 20 21  2  0      
 21 22  1  0      
 22 23  2  0      
 23 11  1  0      
 15 24  1  0      
 24 25  2  0      
 25 26  1  0      
 26 27  2  0      
 27 16  1  0      
 10  1  1  0      
  1 28  2  0      
  1 29  1  0      
 29 30  1  0      
 30 31  1  0      
M  END

>  <RackCode>
HYCPK72335

>  <Cat. No.>
HY-15648F

>  <Product Name>
GSK-J4 (hydrochloride)

>  <ROW>
H

>  <COLUMN>
14

>  <CAS No.>
1797983-09-5

>  <MWt>
453.96

>  <Target>
Histone Demethylase

>  <Saltdate>
Hydrochloride

>  <Smiles>
O=C(OCC)CCNC1=NC(C2=CC=CC=N2)=NC(N3CCC(C=CC=C4)=C4CC3)=C1.Cl

>  <Solvent>
DMSO Solution

>  <Batch No.>
58055

>  <Quantity>
10mM  * 50uL

>  <Pathway>
Epigenetics

>  <Synonyms>


>  <Formula>
C24H28ClN5O2

>  <Research_Area>
Cancer

>  <Clinical_Information>
No Development Reported

>  <SUPPLIER>
MedChemExpress

$$$$
Untitled Document
  ChemDraw01101815222D

 30 33  0  0  0  0  0  0  0  0999 V2000
    0.0210    0.5518    0.0000 C   0  0  0  0  0  0  0  0  0  0  0  0
    0.7354    0.9643    0.0000 N   0  0  0  0  0  0  0  0  0  0  0  0
    1.4499    0.5518    0.0000 C   0  0  0  0  0  0  0  0  0  0  0  0
    1.4499   -0.2732    0.0000 C   0  0  0  0  0  0  0  0  0  0  0  0
    0.7354   -0.6857    0.0000 C   0  0  0  0  0  0  0  0  0  0  0  0
    0.0210   -0.2732    0.0000 N   0  0  0  0  0  0  0  0  0  0  0  0
    2.7195    0.1393    0.0000 N   0  0  0  0  0  0  0  0  0  0  0  0
    2.2345    0.8068    0.0000 N   0  0  0  0  0  0  0  0  0  0  0  0
    2.2345   -0.5281    0.0000 C   0  0  0  0  0  0  0  0  0  0  0  0
    0.7354   -1.5107    0.0000 N   0  0  0  0  0  0  0  0  0  0  0  0
   -0.6935    0.9643    0.0000 N   0  0  0  0  0  0  0  0  0  0  0  0
    2.4895    1.5914    0.0000 C   0  0  0  0  0  0  0  0  0  0  0  0
    1.9374    2.2045    0.0000 C   0  0  0  0  0  0  0  0  0  0  0  0
    2.1924    2.9891    0.0000 C   0  0  0  0  0  0  0  0  0  0  0  0
    2.9994    3.1607    0.0000 C   0  0  0  0  0  0  0  0  0  0  0  0
    3.5514    2.5476    0.0000 C   0  0  0  0  0  0  0  0  0  0  0  0
    3.2964    1.7629    0.0000 C   0  0  0  0  0  0  0  0  0  0  0  0
    0.0210   -1.9232    0.0000 C   0  0  0  0  0  0  0  0  0  0  0  0
   -0.6935   -1.5107    0.0000 C   0  0  0  0  0  0  0  0  0  0  0  0
   -1.4080   -1.9232    0.0000 C   0  0  0  0  0  0  0  0  0  0  0  0
   -1.4080   -2.7482    0.0000 C   0  0  0  0  0  0  0  0  0  0  0  0
   -0.6935   -3.1607    0.0000 C   0  0  0  0  0  0  0  0  0  0  0  0
    0.0210   -2.7482    0.0000 C   0  0  0  0  0  0  0  0  0  0  0  0
   -2.1224   -3.1607    0.0000 C   0  0  0  0  0  0  0  0  0  0  0  0
   -2.1224   -1.5107    0.0000 C   0  0  0  0  0  0  0  0  0  0  0  0
   -1.4080    0.5518    0.0000 C   0  0  0  0  0  0  0  0  0  0  0  0
   -2.1224    0.9643    0.0000 C   0  0  0  0  0  0  0  0  0  0  0  0
   -2.8369    0.5518    0.0000 N   0  0  0  0  0  0  0  0  0  0  0  0
   -3.5514    0.9643    0.0000 C   0  0  0  0  0  0  0  0  0  0  0  0
   -2.8369   -0.2732    0.0000 C   0  0  0  0  0  0  0  0  0  0  0  0
  1  2  1  0      
  2  3  2  0      
  3  4  1  0      
  4  5  2  0      
  5  6  1  0      
  1  6  2  0      
  7  8  1  0      
  7  9  2  0      
  3  8  1  0      
  4  9  1  0      
  5 10  1  0      
  1 11  1  0      
 12 13  1  0      
 13 14  2  0      
 14 15  1  0      
 15 16  2  0      
 16 17  1  0      
 12 17  2  0      
  8 12  1  0      
 18 19  1  0      
 19 20  2  0      
 20 21  1  0      
 21 22  2  0      
 22 23  1  0      
 18 23  2  0      
 21 24  1  0      
 20 25  1  0      
 10 18  1  0      
 26 27  1  0      
 28 29  1  0      
 28 30  1  0      
 27 28  1  0      
 11 26  1  0      
M  END

>  <RackCode>
HYCPK72335

>  <Cat. No.>
HY-109963

>  <Product Name>
PR5-LL-CM01

>  <ROW>
I

>  <COLUMN>
14

>  <CAS No.>
1005307-86-7

>  <MWt>
401.51

>  <Target>
Histone Methyltransferase

>  <Saltdate>


>  <Smiles>
CC1=CC=C(NC2=C3C(N(C4=CC=CC=C4)N=C3)=NC(NCCN(C)C)=N2)C=C1C

>  <Solvent>
DMSO Solution

>  <Batch No.>
168182

>  <Quantity>
10mM  * 50uL

>  <Pathway>
Epigenetics

>  <Synonyms>


>  <Formula>
C23H27N7

>  <Research_Area>
Cancer

>  <Clinical_Information>
No Development Reported

>  <SUPPLIER>
MedChemExpress

$$$$
Untitled Document
  ChemDraw10111717042D

 33 37  0  0  0  0  0  0  0  0999 V2000
   -0.1037    1.2153    0.0000 C   0  0  0  0  0  0  0  0  0  0  0  0
   -0.3586    2.0000    0.0000 N   0  0  0  0  0  0  0  0  0  0  0  0
   -1.1656    2.1715    0.0000 C   0  0  0  0  0  0  0  0  0  0  0  0
   -1.7176    1.5584    0.0000 C   0  0  0  0  0  0  0  0  0  0  0  0
   -1.4627    0.7738    0.0000 C   0  0  0  0  0  0  0  0  0  0  0  0
   -0.6557    0.6022    0.0000 N   0  0  0  0  0  0  0  0  0  0  0  0
    0.7033    1.0438    0.0000 N   0  0  0  0  0  0  0  0  0  0  0  0
   -2.2051    3.2110    0.0000 C   0  0  0  0  0  0  0  0  0  0  0  0
   -2.9196    2.7985    0.0000 C   0  0  0  0  0  0  0  0  0  0  0  0
   -3.6341    3.2110    0.0000 C   0  0  0  0  0  0  0  0  0  0  0  0
   -3.6341    4.0360    0.0000 C   0  0  0  0  0  0  0  0  0  0  0  0
   -2.9196    4.4485    0.0000 N   0  0  0  0  0  0  0  0  0  0  0  0
   -2.2051    4.0360    0.0000 N   0  0  0  0  0  0  0  0  0  0  0  0
   -1.4205    4.2910    0.0000 N   0  0  0  0  0  0  0  0  0  0  0  0
   -0.9356    3.6235    0.0000 C   0  0  0  0  0  0  0  0  0  0  0  0
   -1.4205    2.9561    0.0000 C   0  0  0  0  0  0  0  0  0  0  0  0
    0.9582    0.2592    0.0000 C   0  0  0  0  0  0  0  0  0  0  0  0
    1.7652    0.0877    0.0000 C   0  0  0  0  0  0  0  0  0  0  0  0
    2.0201   -0.6970    0.0000 C   0  0  0  0  0  0  0  0  0  0  0  0
    1.4681   -1.3101    0.0000 C   0  0  0  0  0  0  0  0  0  0  0  0
    0.6611   -1.1385    0.0000 C   0  0  0  0  0  0  0  0  0  0  0  0
    0.4062   -0.3539    0.0000 C   0  0  0  0  0  0  0  0  0  0  0  0
    2.8271   -0.8685    0.0000 C   0  0  0  0  0  0  0  0  0  0  0  0
    3.0821   -1.6531    0.0000 F   0  0  0  0  0  0  0  0  0  0  0  0
    3.6341   -1.0400    0.0000 F   0  0  0  0  0  0  0  0  0  0  0  0
    3.4105   -0.2851    0.0000 F   0  0  0  0  0  0  0  0  0  0  0  0
    1.7231   -2.0947    0.0000 N   0  0  0  0  0  0  0  0  0  0  0  0
    2.5300   -2.2662    0.0000 C   0  0  0  0  0  0  0  0  0  0  0  0
    2.7850   -3.0508    0.0000 C   0  0  0  0  0  0  0  0  0  0  0  0
    2.2329   -3.6639    0.0000 N   0  0  0  0  0  0  0  0  0  0  0  0
    1.4260   -3.4924    0.0000 C   0  0  0  0  0  0  0  0  0  0  0  0
    1.1710   -2.7078    0.0000 C   0  0  0  0  0  0  0  0  0  0  0  0
    2.4879   -4.4485    0.0000 C   0  0  0  0  0  0  0  0  0  0  0  0
  1  2  1  0      
  2  3  2  0      
  3  4  1  0      
  4  5  2  0      
  5  6  1  0      
  1  6  2  0      
  1  7  1  0      
  8  9  1  0      
  9 10  2  0      
 10 11  1  0      
 11 12  2  0      
 12 13  1  0      
  8 13  1  0      
 14 15  2  0      
 15 16  1  0      
 13 14  1  0      
  8 16  2  0      
  3 16  1  0      
 17 18  1  0      
 18 19  2  0      
 19 20  1  0      
 20 21  2  0      
 21 22  1  0      
 17 22  2  0      
 23 24  1  0      
 23 25  1  0      
 23 26  1  0      
 19 23  1  0      
 27 28  1  0      
 28 29  1  0      
 29 30  1  0      
 30 31  1  0      
 31 32  1  0      
 27 32  1  0      
 30 33  1  0      
 20 27  1  0      
  7 17  1  0      
M  END

>  <RackCode>
HYCPK72335

>  <Cat. No.>
HY-103645

>  <Product Name>
GW779439X

>  <ROW>
J

>  <COLUMN>
14

>  <CAS No.>
551919-98-3

>  <MWt>
454.45

>  <Target>
Apoptosis; Aurora Kinase; Bacterial

>  <Saltdate>


>  <Smiles>
FC(C1=CC(NC2=NC=CC(C3=C4C=CC=NN4N=C3)=N2)=CC=C1N5CCN(C)CC5)(F)F

>  <Solvent>
DMSO Solution

>  <Batch No.>
212702

>  <Quantity>
10mM  * 50uL

>  <Pathway>
Anti-infection; Apoptosis; Cell Cycle/DNA Damage; Epigenetics

>  <Synonyms>


>  <Formula>
C22H21F3N8

>  <Research_Area>
Cancer; Infection

>  <Clinical_Information>
No Development Reported

>  <SUPPLIER>
MedChemExpress

$$$$
Untitled Document
  ChemDraw09031909032D

 25 27  0  0  0  0  0  0  0  0999 V2000
    0.2956    0.2062    0.0000 C   0  0  0  0  0  0  0  0  0  0  0  0
    1.0101   -0.2062    0.0000 C   0  0  0  0  0  0  0  0  0  0  0  0
    1.7246    0.2062    0.0000 C   0  0  0  0  0  0  0  0  0  0  0  0
    2.4391   -0.2062    0.0000 C   0  0  0  0  0  0  0  0  0  0  0  0
    2.4391   -1.0313    0.0000 C   0  0  0  0  0  0  0  0  0  0  0  0
    1.7246   -1.4438    0.0000 C   0  0  0  0  0  0  0  0  0  0  0  0
    1.0101   -1.0313    0.0000 C   0  0  0  0  0  0  0  0  0  0  0  0
    0.2956    0.7933    0.0000 O   0  0  0  0  0  0  0  0  0  0  0  0
   -0.4189   -0.2062    0.0000 N   0  0  0  0  0  0  0  0  0  0  0  0
   -1.1333    0.2062    0.0000 C   0  0  0  0  0  0  0  0  0  0  0  0
   -1.1333    1.0313    0.0000 C   0  0  0  0  0  0  0  0  0  0  0  0
   -1.8478    1.4438    0.0000 C   0  0  0  0  0  0  0  0  0  0  0  0
   -2.5624    1.0313    0.0000 C   0  0  0  0  0  0  0  0  0  0  0  0
   -2.5624    0.2062    0.0000 C   0  0  0  0  0  0  0  0  0  0  0  0
   -1.8478   -0.2062    0.0000 C   0  0  0  0  0  0  0  0  0  0  0  0
   -3.2768   -0.2062    0.0000 C   0  0  0  0  0  0  0  0  0  0  0  0
   -3.3631   -1.0267    0.0000 C   0  0  0  0  0  0  0  0  0  0  0  0
   -4.1700   -1.1983    0.0000 C   0  0  0  0  0  0  0  0  0  0  0  0
   -4.5825   -0.4838    0.0000 C   0  0  0  0  0  0  0  0  0  0  0  0
   -4.0305    0.1293    0.0000 S   0  0  0  0  0  0  0  0  0  0  0  0
   -0.4189    1.4438    0.0000 N   0  0  0  0  0  0  0  0  0  0  0  0
    3.1536   -1.4438    0.0000 N   0  0  0  0  0  0  0  0  0  0  0  0
    3.8681   -1.0313    0.0000 C   0  0  0  0  0  0  0  0  0  0  0  0
    3.8681   -0.2062    0.0000 O   0  0  0  0  0  0  0  0  0  0  0  0
    4.5825   -1.4438    0.0000 C   0  0  0  0  0  0  0  0  0  0  0  0
  1  2  1  0      
  2  3  1  0      
  3  4  2  0      
  4  5  1  0      
  5  6  2  0      
  6  7  1  0      
  2  7  2  0      
  1  8  2  0      
  1  9  1  0      
 10 11  1  0      
 11 12  2  0      
 12 13  1  0      
 13 14  2  0      
 14 15  1  0      
 10 15  2  0      
 16 17  2  0      
 17 18  1  0      
 18 19  2  0      
 19 20  1  0      
 16 20  1  0      
 14 16  1  0      
 11 21  1  0      
  9 10  1  0      
 23 24  2  0      
 23 25  1  0      
 22 23  1  0      
  5 22  1  0      
M  END

>  <RackCode>
HYCPK72335

>  <Cat. No.>
HY-100719

>  <Product Name>
BRD-6929

>  <ROW>
K

>  <COLUMN>
14

>  <CAS No.>
849234-64-6

>  <MWt>
351.42

>  <Target>
HDAC; HIV

>  <Saltdate>
Free Base

>  <Smiles>
O=C(NC1=CC(C2=CC=CS2)=CC=C1N)C3=CC=C(NC(C)=O)C=C3

>  <Solvent>
DMSO Solution

>  <Batch No.>
60769

>  <Quantity>
10mM  * 50uL

>  <Pathway>
Anti-infection; Cell Cycle/DNA Damage; Epigenetics

>  <Synonyms>


>  <Formula>
C19H17N3O2S

>  <Research_Area>
Infection; Cardiovascular Disease

>  <Clinical_Information>
No Development Reported

>  <SUPPLIER>
MedChemExpress

$$$$
Untitled Document
  ChemDraw06132316322D

 21 22  0  0  0  0  0  0  0  0999 V2000
   -1.8414    1.3885    0.0000 F   0  0  0  0  0  0  0  0  0  0  0  0
   -1.8414    0.5635    0.0000 C   0  0  0  0  0  0  0  0  0  0  0  0
   -2.5559    0.1510    0.0000 C   0  0  0  0  0  0  0  0  0  0  0  0
   -2.5559   -0.6740    0.0000 C   0  0  0  0  0  0  0  0  0  0  0  0
   -3.2704   -1.0865    0.0000 F   0  0  0  0  0  0  0  0  0  0  0  0
   -1.8414   -1.0865    0.0000 C   0  0  0  0  0  0  0  0  0  0  0  0
   -1.1270   -0.6740    0.0000 C   0  0  0  0  0  0  0  0  0  0  0  0
   -0.4125   -1.0865    0.0000 C   0  0  0  0  0  0  0  0  0  0  0  0
    0.4125   -1.0865    0.0000 C   0  0  0  0  0  0  0  0  0  0  0  0
    1.1270   -0.6740    0.0000 N   0  0  0  0  0  0  0  0  0  0  0  0
   -0.0000   -1.8010    0.0000 C   0  0  0  0  0  0  0  0  0  0  0  0
   -1.1270    0.1510    0.0000 C   0  0  0  0  0  0  0  0  0  0  0  0
   -0.4125    0.5635    0.0000 O   0  0  0  0  0  0  0  0  0  0  0  0
    0.3020    0.1510    0.0000 C   0  0  0  0  0  0  0  0  0  0  0  0
    1.0164    0.5635    0.0000 C   0  0  0  0  0  0  0  0  0  0  0  0
    1.0164    1.3885    0.0000 C   0  0  0  0  0  0  0  0  0  0  0  0
    1.7309    1.8010    0.0000 C   0  0  0  0  0  0  0  0  0  0  0  0
    2.4454    1.3885    0.0000 C   0  0  0  0  0  0  0  0  0  0  0  0
    2.4454    0.5635    0.0000 C   0  0  0  0  0  0  0  0  0  0  0  0
    1.7309    0.1510    0.0000 C   0  0  0  0  0  0  0  0  0  0  0  0
    3.2704    0.0000    0.0000 Cl  0  0  0  0  0  0  0  0  0  0  0  0
  1  2  1  0      
  2  3  2  0      
  3  4  1  0      
  4  5  1  0      
  4  6  2  0      
  6  7  1  0      
  8  7  1  1      
  8  9  1  0      
  9 10  1  6      
  9 11  1  0      
  8 11  1  0      
  7 12  2  0      
  2 12  1  0      
 12 13  1  0      
 13 14  1  0      
 14 15  1  0      
 15 16  2  0      
 16 17  1  0      
 17 18  2  0      
 18 19  1  0      
 19 20  2  0      
 15 20  1  0      
M  END

>  <RackCode>
HYCPK72335

>  <Cat. No.>
HY-110277

>  <Product Name>
S2101

>  <ROW>
L

>  <COLUMN>
14

>  <CAS No.>
1239262-36-2

>  <MWt>
311.76

>  <Target>
Histone Demethylase

>  <Saltdate>
Hydrochloride

>  <Smiles>
FC1=CC(F)=CC([C@H]2[C@H](N)C2)=C1OCC3=CC=CC=C3.Cl

>  <Solvent>
DMSO Solution

>  <Batch No.>
246956

>  <Quantity>
10mM  * 50uL

>  <Pathway>
Epigenetics

>  <Synonyms>


>  <Formula>
C16H16ClF2NO

>  <Research_Area>
Cancer

>  <Clinical_Information>
No Development Reported

>  <SUPPLIER>
MedChemExpress

$$$$
Untitled Document
  ChemDraw06211615352D

 20 21  0  0  0  0  0  0  0  0999 V2000
    1.4289   -0.8250    0.0000 N   0  0  0  0  0  0  0  0  0  0  0  0
    0.7145   -1.2375    0.0000 C   0  0  0  0  0  0  0  0  0  0  0  0
    0.7145   -2.0625    0.0000 C   0  0  0  0  0  0  0  0  0  0  0  0
    1.4289   -2.4750    0.0000 O   0  0  0  0  0  0  0  0  0  0  0  0
    2.1434   -2.0625    0.0000 C   0  0  0  0  0  0  0  0  0  0  0  0
    2.1434   -1.2375    0.0000 C   0  0  0  0  0  0  0  0  0  0  0  0
    1.4289    0.0000    0.0000 N   0  0  0  0  0  0  0  0  0  0  0  0
    0.7145    0.4125    0.0000 C   0  0  0  0  0  0  0  0  0  0  0  0
    0.7145    1.2375    0.0000 C   0  0  0  0  0  0  0  0  0  0  0  0
   -0.0000    1.6500    0.0000 C   0  0  0  0  0  0  0  0  0  0  0  0
   -0.7145    1.2375    0.0000 C   0  0  0  0  0  0  0  0  0  0  0  0
   -0.7145    0.4125    0.0000 C   0  0  0  0  0  0  0  0  0  0  0  0
   -0.0000    0.0000    0.0000 C   0  0  0  0  0  0  0  0  0  0  0  0
   -1.4289    1.6500    0.0000 C   0  0  0  0  0  0  0  0  0  0  0  0
   -1.4289    2.4750    0.0000 F   0  0  0  0  0  0  0  0  0  0  0  0
   -2.1434    2.0625    0.0000 F   0  0  0  0  0  0  0  0  0  0  0  0
   -2.1434    1.2375    0.0000 F   0  0  0  0  0  0  0  0  0  0  0  0
    1.4289    1.6500    0.0000 N   0  3  0  0  0  0  0  0  0  0  0  0
    1.4289    2.4750    0.0000 O   0  0  0  0  0  0  0  0  0  0  0  0
    2.1434    1.2375    0.0000 O   0  5  0  0  0  0  0  0  0  0  0  0
  1  2  1  0      
  2  3  1  0      
  3  4  1  0      
  4  5  1  0      
  5  6  1  0      
  1  6  1  0      
  1  7  1  0      
  8  9  1  0      
  9 10  2  0      
 10 11  1  0      
 11 12  2  0      
 12 13  1  0      
  8 13  2  0      
 14 15  1  0      
 14 16  1  0      
 14 17  1  0      
 11 14  1  0      
 18 19  2  0      
 18 20  1  0      
  9 18  1  0      
  7  8  1  0      
M  CHG  2  18   1  20  -1
M  END

>  <RackCode>
HYCPK72335

>  <Cat. No.>
HY-19621

>  <Product Name>
THS-044

>  <ROW>
M

>  <COLUMN>
14

>  <CAS No.>
62054-67-5

>  <MWt>
291.23

>  <Target>
HIF/HIF Prolyl-Hydroxylase

>  <Saltdate>
Free Base

>  <Smiles>
FC(C1=CC=C(NN2CCOCC2)C([N+]([O-])=O)=C1)(F)F

>  <Solvent>
DMSO Solution

>  <Batch No.>
19196

>  <Quantity>
10mM  * 50uL

>  <Pathway>
Metabolic Enzyme/Protease

>  <Synonyms>


>  <Formula>
C11H12F3N3O3

>  <Research_Area>
Cancer

>  <Clinical_Information>
No Development Reported

>  <SUPPLIER>
MedChemExpress

$$$$
Untitled Document
  ChemDraw03051816112D

 31 33  0  0  0  0  0  0  0  0999 V2000
   -1.7282   -1.2748    0.0000 C   0  0  0  0  0  0  0  0  0  0  0  0
   -1.7282   -2.0998    0.0000 C   0  0  0  0  0  0  0  0  0  0  0  0
   -1.0138   -2.5123    0.0000 C   0  0  0  0  0  0  0  0  0  0  0  0
   -0.2993   -2.0998    0.0000 C   0  0  0  0  0  0  0  0  0  0  0  0
   -0.2993   -1.2748    0.0000 C   0  0  0  0  0  0  0  0  0  0  0  0
   -1.0138   -0.8623    0.0000 C   0  0  0  0  0  0  0  0  0  0  0  0
    0.4853   -2.3547    0.0000 N   0  0  0  0  0  0  0  0  0  0  0  0
    0.9703   -1.6873    0.0000 C   0  0  0  0  0  0  0  0  0  0  0  0
    0.4853   -1.0198    0.0000 C   0  0  0  0  0  0  0  0  0  0  0  0
    0.7394   -3.1366    0.0000 C   0  0  0  0  0  0  0  0  0  0  0  0
    1.5436   -3.3075    0.0000 C   0  0  0  0  0  0  0  0  0  0  0  0
    0.1893   -3.7476    0.0000 O   0  0  0  0  0  0  0  0  0  0  0  0
    0.7394   -0.2379    0.0000 C   0  0  0  0  0  0  0  0  0  0  0  0
    1.5436   -0.0670    0.0000 N   0  0  0  0  0  0  0  0  0  0  0  0
    0.1893    0.3730    0.0000 O   0  0  0  0  0  0  0  0  0  0  0  0
    1.7976    0.7149    0.0000 C   0  0  0  0  0  0  0  0  0  0  0  0
   -2.4402   -0.8637    0.0000 O   0  0  0  0  0  0  0  0  0  0  0  0
   -3.1547   -1.2762    0.0000 C   0  0  0  0  0  0  0  0  0  0  0  0
    2.6046    0.8864    0.0000 C   0  0  0  0  0  0  0  0  0  0  0  0
    2.8595    1.6711    0.0000 C   0  0  0  0  0  0  0  0  0  0  0  0
    2.3075    2.2842    0.0000 C   0  0  0  0  0  0  0  0  0  0  0  0
    1.5005    2.1126    0.0000 C   0  0  0  0  0  0  0  0  0  0  0  0
    1.2456    1.3280    0.0000 C   0  0  0  0  0  0  0  0  0  0  0  0
    3.1547    0.2755    0.0000 F   0  0  0  0  0  0  0  0  0  0  0  0
    0.9504    2.7236    0.0000 C   0  0  0  0  0  0  0  0  0  0  0  0
    0.1535    2.5101    0.0000 O   0  0  0  0  0  0  0  0  0  0  0  0
    1.1839    3.5119    0.0000 O   0  0  0  0  0  0  0  0  0  0  0  0
   -0.5610    2.9226    0.0000 C   0  0  0  0  0  0  0  0  0  0  0  0
   -0.5610    3.7476    0.0000 C   0  0  0  0  0  0  0  0  0  0  0  0
   -1.2730    2.5115    0.0000 C   0  0  0  0  0  0  0  0  0  0  0  0
   -1.2754    3.3351    0.0000 C   0  0  0  0  0  0  0  0  0  0  0  0
  1  2  2  0      
  2  3  1  0      
  3  4  2  0      
  4  5  1  0      
  5  6  2  0      
  6  1  1  0      
  4  7  1  0      
  7  8  1  0      
  8  9  2  0      
  9  5  1  0      
  7 10  1  0      
 10 11  1  0      
 10 12  2  0      
  9 13  1  0      
 13 14  1  0      
 13 15  2  0      
 14 16  1  0      
  1 17  1  0      
 17 18  1  0      
 16 19  2  0      
 19 20  1  0      
 20 21  2  0      
 21 22  1  0      
 22 23  2  0      
 23 16  1  0      
 19 24  1  0      
 22 25  1  0      
 25 26  1  0      
 25 27  2  0      
 26 28  1  0      
 28 29  1  0      
 28 30  1  0      
 28 31  1  0      
M  END

>  <RackCode>
HYCPK72335

>  <Cat. No.>
HY-111420

>  <Product Name>
CBP/p300-IN-1

>  <ROW>
N

>  <COLUMN>
14

>  <CAS No.>
2443789-32-8

>  <MWt>
426.44

>  <Target>
Epigenetic Reader Domain

>  <Saltdate>
Free Base

>  <Smiles>
CC(N1C2=CC=C(OC)C=C2C(C(NC3=C(F)C=CC(C(OC(C)(C)C)=O)=C3)=O)=C1)=O

>  <Solvent>
DMSO Solution

>  <Batch No.>
50180

>  <Quantity>
10mM  * 50uL

>  <Pathway>
Epigenetics

>  <Synonyms>


>  <Formula>
C23H23FN2O5

>  <Research_Area>
Cancer

>  <Clinical_Information>
No Development Reported

>  <SUPPLIER>
MedChemExpress

$$$$
Untitled Document
  ChemDraw03282417362D

 55 61  0  0  0  0  0  0  0  0999 V2000
   -3.5426    3.6680    0.0000 N   0  0  0  0  0  0  0  0  0  0  0  0
   -2.7383    3.4844    0.0000 C   0  0  0  0  0  0  0  0  0  0  0  0
   -2.3803    2.7411    0.0000 C   0  0  0  0  0  0  0  0  0  0  0  0
   -2.7383    1.9978    0.0000 N   0  0  0  0  0  0  0  0  0  0  0  0
   -3.5426    1.8142    0.0000 C   0  0  0  0  0  0  0  0  0  0  0  0
   -4.1876    2.3286    0.0000 C   0  0  0  0  0  0  0  0  0  0  0  0
   -4.1876    3.1536    0.0000 C   0  0  0  0  0  0  0  0  0  0  0  0
   -2.8579    4.8139    0.0000 N   0  0  0  0  0  0  0  0  0  0  0  0
   -2.3152    4.1926    0.0000 N   0  0  0  0  0  0  0  0  0  0  0  0
   -3.6166    4.4897    0.0000 C   0  0  0  0  0  0  0  0  0  0  0  0
   -4.9722    2.0737    0.0000 C   0  0  0  0  0  0  0  0  0  0  0  0
   -5.4572    2.7411    0.0000 C   0  0  0  0  0  0  0  0  0  0  0  0
   -4.9722    3.4086    0.0000 S   0  0  0  0  0  0  0  0  0  0  0  0
   -1.1428    2.0267    0.0000 C   0  0  0  0  0  0  0  0  0  0  0  0
   -1.5553    2.7411    0.0000 C   0  0  0  0  0  0  0  0  0  0  0  0
   -1.5553    1.3122    0.0000 O   0  0  0  0  0  0  0  0  0  0  0  0
   -0.3178    2.0267    0.0000 N   0  0  0  0  0  0  0  0  0  0  0  0
   -4.3310    4.9022    0.0000 C   0  0  0  0  0  0  0  0  0  0  0  0
   -5.2272    1.2891    0.0000 C   0  0  0  0  0  0  0  0  0  0  0  0
   -6.2822    2.7411    0.0000 C   0  0  0  0  0  0  0  0  0  0  0  0
    0.0947    1.3122    0.0000 C   0  0  0  0  0  0  0  0  0  0  0  0
    0.9197    1.3122    0.0000 C   0  0  0  0  0  0  0  0  0  0  0  0
    1.3322    0.5977    0.0000 C   0  0  0  0  0  0  0  0  0  0  0  0
    2.1572    0.5977    0.0000 C   0  0  0  0  0  0  0  0  0  0  0  0
    2.5697   -0.1168    0.0000 N   0  0  0  0  0  0  0  0  0  0  0  0
    3.3947   -0.1168    0.0000 C   0  0  0  0  0  0  0  0  0  0  0  0
    3.8072    0.5977    0.0000 O   0  0  0  0  0  0  0  0  0  0  0  0
    3.8072   -0.8312    0.0000 C   0  0  0  0  0  0  0  0  0  0  0  0
    4.6322   -0.8312    0.0000 O   0  0  0  0  0  0  0  0  0  0  0  0
    4.4926   -3.5877    0.0000 C   0  0  0  0  0  0  0  0  0  0  0  0
    3.7390   -3.2522    0.0000 N   0  0  0  0  0  0  0  0  0  0  0  0
    3.8252   -2.4317    0.0000 C   0  0  0  0  0  0  0  0  0  0  0  0
    4.6322   -2.2602    0.0000 C   0  0  0  0  0  0  0  0  0  0  0  0
    5.0447   -1.5457    0.0000 C   0  0  0  0  0  0  0  0  0  0  0  0
    5.8697   -1.5457    0.0000 C   0  0  0  0  0  0  0  0  0  0  0  0
    6.2822   -2.2602    0.0000 C   0  0  0  0  0  0  0  0  0  0  0  0
    5.8697   -2.9746    0.0000 C   0  0  0  0  0  0  0  0  0  0  0  0
    5.0447   -2.9746    0.0000 C   0  0  0  0  0  0  0  0  0  0  0  0
    3.2121   -1.8797    0.0000 O   0  0  0  0  0  0  0  0  0  0  0  0
    4.6642   -4.3947    0.0000 O   0  0  0  0  0  0  0  0  0  0  0  0
    2.3100   -4.9022    0.0000 N   0  0  0  0  0  0  0  0  0  0  0  0
    3.0245   -4.4897    0.0000 C   0  0  0  0  0  0  0  0  0  0  0  0
    3.0245   -3.6647    0.0000 C   0  0  0  0  0  0  0  0  0  0  0  0
    2.3100   -3.2522    0.0000 C   0  0  0  0  0  0  0  0  0  0  0  0
    1.5955   -3.6647    0.0000 C   0  0  0  0  0  0  0  0  0  0  0  0
    1.5955   -4.4897    0.0000 C   0  0  0  0  0  0  0  0  0  0  0  0
    0.8811   -4.9022    0.0000 O   0  0  0  0  0  0  0  0  0  0  0  0
    3.7390   -4.9022    0.0000 O   0  0  0  0  0  0  0  0  0  0  0  0
   -3.7262    1.0099    0.0000 C   0  0  0  0  0  0  0  0  0  0  0  0
   -3.1214    0.4488    0.0000 C   0  0  0  0  0  0  0  0  0  0  0  0
   -3.3050   -0.3555    0.0000 C   0  0  0  0  0  0  0  0  0  0  0  0
   -4.0933   -0.5987    0.0000 C   0  0  0  0  0  0  0  0  0  0  0  0
   -4.6981   -0.0376    0.0000 C   0  0  0  0  0  0  0  0  0  0  0  0
   -4.5145    0.7668    0.0000 C   0  0  0  0  0  0  0  0  0  0  0  0
   -4.2769   -1.4030    0.0000 Cl  0  0  0  0  0  0  0  0  0  0  0  0
  1  2  1  0      
  2  3  1  0      
  3  4  1  0      
  4  5  2  0      
  5  6  1  0      
  6  7  2  0      
  1  7  1  0      
  8  9  1  0      
  8 10  2  0      
  1 10  1  0      
  2  9  2  0      
 11 12  2  0      
 12 13  1  0      
  6 11  1  0      
  7 13  1  0      
 14 15  1  0      
 14 16  2  0      
 14 17  1  0      
  3 15  1  6      
 10 18  1  0      
 11 19  1  0      
 12 20  1  0      
 21 22  1  0      
 22 23  1  0      
 23 24  1  0      
 26 27  2  0      
 26 28  1  0      
 30 31  1  0      
 31 32  1  0      
 32 33  1  0      
 33 34  1  0      
 34 35  2  0      
 35 36  1  0      
 36 37  2  0      
 37 38  1  0      
 30 38  1  0      
 33 38  2  0      
 32 39  2  0      
 30 40  2  0      
 41 42  1  0      
 42 43  1  0      
 43 44  1  0      
 44 45  1  0      
 45 46  1  0      
 41 46  1  0      
 46 47  2  0      
 42 48  2  0      
 31 43  1  0      
 29 34  1  0      
 28 29  1  0      
 25 26  1  0      
 24 25  1  0      
 17 21  1  0      
 49 50  1  0      
 50 51  2  0      
 51 52  1  0      
 52 53  2  0      
 53 54  1  0      
 49 54  2  0      
 52 55  1  0      
  5 49  1  0      
M  END

>  <RackCode>
HYCPK72335

>  <Cat. No.>
HY-101838

>  <Product Name>
dBET1

>  <ROW>
O

>  <COLUMN>
14

>  <CAS No.>
1799711-21-9

>  <MWt>
785.27

>  <Target>
Epigenetic Reader Domain; PROTACs

>  <Saltdate>
Free Base

>  <Smiles>
O=C(NCCCCNC(COC1=CC=CC(C(N2C(CC3)C(NC3=O)=O)=O)=C1C2=O)=O)C[C@H]4C5=NN=C(C)N5C6=C(C(C)=C(C)S6)C(C7=CC=C(Cl)C=C7)=N4

>  <Solvent>
DMSO Solution

>  <Batch No.>
376575

>  <Quantity>
10mM  * 50uL

>  <Pathway>
Epigenetics; PROTAC

>  <Synonyms>


>  <Formula>
C38H37ClN8O7S

>  <Research_Area>
Cancer

>  <Clinical_Information>
No Development Reported

>  <SUPPLIER>
MedChemExpress

$$$$
Untitled Document
  ChemDraw05212008272D

 45 50  0  0  0  0  0  0  0  0999 V2000
    2.1987   -0.6187    0.0000 C   0  0  0  0  0  0  0  0  0  0  0  0
    1.4842   -0.2062    0.0000 C   0  0  0  0  0  0  0  0  0  0  0  0
    1.4842    0.6187    0.0000 C   0  0  0  0  0  0  0  0  0  0  0  0
    0.7697    1.0313    0.0000 C   0  0  0  0  0  0  0  0  0  0  0  0
    0.0553    0.6187    0.0000 C   0  0  0  0  0  0  0  0  0  0  0  0
    0.0553   -0.2062    0.0000 C   0  0  0  0  0  0  0  0  0  0  0  0
    0.7697   -0.6187    0.0000 C   0  0  0  0  0  0  0  0  0  0  0  0
    2.1987   -1.4437    0.0000 O   0  0  0  0  0  0  0  0  0  0  0  0
    2.9131   -0.2062    0.0000 N   0  0  0  0  0  0  0  0  0  0  0  0
    2.1987    1.0313    0.0000 C   0  0  0  0  0  0  0  0  0  0  0  0
    3.6276   -0.6187    0.0000 C   0  0  0  0  0  0  0  0  0  0  0  0
    4.3421    0.6187    0.0000 C   0  0  0  0  0  0  0  0  0  0  0  0
    4.3421   -0.2062    0.0000 C   0  0  0  0  0  0  0  0  0  0  0  0
    5.0566   -0.6187    0.0000 C   0  0  0  0  0  0  0  0  0  0  0  0
    5.7710   -0.2062    0.0000 C   0  0  0  0  0  0  0  0  0  0  0  0
    5.7710    0.6187    0.0000 C   0  0  0  0  0  0  0  0  0  0  0  0
    5.0566    1.0313    0.0000 N   0  0  0  0  0  0  0  0  0  0  0  0
    3.6276    1.0313    0.0000 O   0  0  0  0  0  0  0  0  0  0  0  0
    6.4855    1.0313    0.0000 C   0  0  0  0  0  0  0  0  0  0  0  0
    5.0566   -1.4437    0.0000 C   0  0  0  0  0  0  0  0  0  0  0  0
   -0.6592   -1.4437    0.0000 C   0  0  0  0  0  0  0  0  0  0  0  0
   -0.6592   -0.6187    0.0000 C   0  0  0  0  0  0  0  0  0  0  0  0
   -1.3737   -0.2062    0.0000 C   0  0  0  0  0  0  0  0  0  0  0  0
   -2.0881   -0.6187    0.0000 C   0  0  0  0  0  0  0  0  0  0  0  0
   -2.0881   -1.4437    0.0000 C   0  0  0  0  0  0  0  0  0  0  0  0
   -1.3737   -1.8563    0.0000 N   0  0  0  0  0  0  0  0  0  0  0  0
    0.0553   -1.8563    0.0000 C   0  0  0  0  0  0  0  0  0  0  0  0
   -2.8026   -1.8563    0.0000 N   0  0  0  0  0  0  0  0  0  0  0  0
   -3.5171   -1.4437    0.0000 C   0  0  0  0  0  0  0  0  0  0  0  0
   -4.2316   -1.8563    0.0000 C   0  0  0  0  0  0  0  0  0  0  0  0
   -4.2316   -2.6812    0.0000 N   0  0  0  0  0  0  0  0  0  0  0  0
   -3.5171   -3.0938    0.0000 C   0  0  0  0  0  0  0  0  0  0  0  0
   -2.8026   -2.6812    0.0000 C   0  0  0  0  0  0  0  0  0  0  0  0
   -4.9460   -3.0938    0.0000 C   0  0  0  0  0  0  0  0  0  0  0  0
   -5.6605   -2.6812    0.0000 C   0  0  0  0  0  0  0  0  0  0  0  0
   -6.0730   -1.9668    0.0000 C   0  0  0  0  0  0  0  0  0  0  0  0
   -6.4855   -2.6812    0.0000 C   0  0  0  0  0  0  0  0  0  0  0  0
    0.7697    1.8563    0.0000 N   0  0  0  0  0  0  0  0  0  0  0  0
    1.4842    2.2687    0.0000 C   0  0  0  0  0  0  0  0  0  0  0  0
    2.1987    1.8563    0.0000 C   0  0  0  0  0  0  0  0  0  0  0  0
    0.0553    2.2687    0.0000 C   0  0  0  0  0  0  0  0  0  0  0  0
    0.0553    3.0938    0.0000 O   0  0  0  0  0  0  0  0  0  0  0  0
   -0.6592    1.8563    0.0000 C   0  0  0  0  0  0  0  0  0  0  0  0
   -1.4842    1.8563    0.0000 C   0  0  0  0  0  0  0  0  0  0  0  0
   -1.0717    1.1418    0.0000 C   0  0  0  0  0  0  0  0  0  0  0  0
  1  2  1  0      
  2  3  1  0      
  3  4  2  0      
  4  5  1  0      
  5  6  2  0      
  6  7  1  0      
  2  7  2  0      
  1  8  2  0      
  1  9  1  0      
  3 10  1  0      
 12 13  1  0      
 13 14  2  0      
 14 15  1  0      
 15 16  2  0      
 16 17  1  0      
 12 17  1  0      
 12 18  2  0      
 16 19  1  0      
 14 20  1  0      
 11 13  1  0      
  9 11  1  0      
 21 22  1  0      
 22 23  2  0      
 23 24  1  0      
 24 25  2  0      
 25 26  1  0      
 21 26  2  0      
 21 27  1  0      
 28 29  1  0      
 29 30  1  0      
 30 31  1  0      
 31 32  1  0      
 32 33  1  0      
 28 33  1  0      
 35 36  1  0      
 36 37  1  0      
 35 37  1  0      
 34 35  1  0      
 31 34  1  0      
 25 28  1  0      
  6 22  1  0      
 39 40  1  0      
 38 39  1  0      
 41 42  2  0      
 43 44  1  0      
 44 45  1  0      
 43 45  1  0      
 41 43  1  0      
 38 41  1  0      
  4 38  1  0      
M  END

>  <RackCode>
HYCPK72335

>  <Cat. No.>
HY-A0298

>  <Product Name>
EZH2-IN-2

>  <ROW>
P

>  <COLUMN>
14

>  <CAS No.>
2238821-31-1

>  <MWt>
610.79

>  <Target>
Histone Methyltransferase

>  <Saltdate>


>  <Smiles>
O=C(NCC1=C(C)C=C(C)NC1=O)C2=CC(C3=CC=C(N4CCN(CC5CC5)CC4)N=C3C)=CC(N(C(C6CC6)=O)CC)=C2C

>  <Solvent>
DMSO Solution

>  <Batch No.>
62042

>  <Quantity>
10mM  * 50uL

>  <Pathway>
Epigenetics

>  <Synonyms>


>  <Formula>
C36H46N6O3

>  <Research_Area>
Cancer

>  <Clinical_Information>
No Development Reported

>  <SUPPLIER>
MedChemExpress

$$$$
Untitled Document
  ChemDraw01102410132D

 26 27  0  0  0  0  0  0  0  0999 V2000
    5.4428   -1.3124    0.0000 O   0  0  0  0  0  0  0  0  0  0  0  0
    5.1073   -0.5588    0.0000 N   0  3  0  0  0  0  0  0  0  0  0  0
    4.2869   -0.4725    0.0000 C   0  0  0  0  0  0  0  0  0  0  0  0
    3.7348   -1.0856    0.0000 C   0  0  0  0  0  0  0  0  0  0  0  0
    2.9812   -0.7501    0.0000 N   0  0  0  0  0  0  0  0  0  0  0  0
    2.2667   -1.1626    0.0000 C   0  0  0  0  0  0  0  0  0  0  0  0
    1.5523   -0.7501    0.0000 C   0  0  0  0  0  0  0  0  0  0  0  0
    0.8379   -1.1626    0.0000 C   0  0  0  0  0  0  0  0  0  0  0  0
    0.1234   -0.7501    0.0000 C   0  0  0  0  0  0  0  0  0  0  0  0
   -0.5911   -1.1626    0.0000 C   0  0  0  0  0  0  0  0  0  0  0  0
   -1.3056   -0.7501    0.0000 N   0  0  0  0  0  0  0  0  0  0  0  0
   -2.0199   -1.1626    0.0000 N   0  0  0  0  0  0  0  0  0  0  0  0
   -2.7344   -0.7501    0.0000 C   0  0  0  0  0  0  0  0  0  0  0  0
   -3.4489   -1.1626    0.0000 N   0  0  0  0  0  0  0  0  0  0  0  0
   -4.1633   -0.7501    0.0000 C   0  0  0  0  0  0  0  0  0  0  0  0
   -4.8778   -1.1626    0.0000 C   0  0  0  0  0  0  0  0  0  0  0  0
   -5.5922   -0.7501    0.0000 C   0  0  0  0  0  0  0  0  0  0  0  0
   -2.7344    0.0749    0.0000 S   0  0  0  0  0  0  0  0  0  0  0  0
    0.1234    0.0749    0.0000 C   0  0  0  0  0  0  0  0  0  0  0  0
    0.8379    0.4874    0.0000 C   0  0  0  0  0  0  0  0  0  0  0  0
    1.5523    0.0749    0.0000 C   0  0  0  0  0  0  0  0  0  0  0  0
    2.2667    0.4874    0.0000 O   0  0  0  0  0  0  0  0  0  0  0  0
    2.2667    1.3124    0.0000 C   0  0  0  0  0  0  0  0  0  0  0  0
    3.0674    0.0704    0.0000 N   0  0  0  0  0  0  0  0  0  0  0  0
    3.8744    0.2419    0.0000 C   0  0  0  0  0  0  0  0  0  0  0  0
    5.5922    0.1087    0.0000 O   0  5  0  0  0  0  0  0  0  0  0  0
  1  2  2  0      
  2  3  1  0      
  3  4  2  0      
  4  5  1  0      
  5  6  1  0      
  6  7  1  0      
  7  8  2  0      
  8  9  1  0      
  9 10  1  0      
 10 11  2  0      
 11 12  1  0      
 12 13  1  0      
 13 14  1  0      
 14 15  1  0      
 15 16  1  0      
 16 17  2  0      
 13 18  2  0      
  9 19  2  0      
 19 20  1  0      
 20 21  2  0      
  7 21  1  0      
 21 22  1  0      
 22 23  1  0      
  5 24  1  0      
 24 25  2  0      
  3 25  1  0      
  2 26  1  0      
M  CHG  2   2   1  26  -1
M  END

>  <RackCode>
HYCPK72335

>  <Cat. No.>
HY-111522

>  <Product Name>
RK-9123016

>  <ROW>
A

>  <COLUMN>
15

>  <CAS No.>
955900-27-3

>  <MWt>
374.42

>  <Target>
c-Myc; Sirtuin

>  <Saltdate>


>  <Smiles>
O=[N+]([O-])C1=CN(N=C1)CC2=CC(/C=N/NC(NCC=C)=S)=CC=C2OC

>  <Solvent>
DMSO Solution

>  <Batch No.>
370424

>  <Quantity>
10mM  * 50uL

>  <Pathway>
Apoptosis; Cell Cycle/DNA Damage; Epigenetics

>  <Synonyms>


>  <Formula>
C16H18N6O3S

>  <Research_Area>
cancer

>  <Clinical_Information>
No Development Reported

>  <SUPPLIER>
MedChemExpress

$$$$
Untitled Document
  ChemDraw03161615522D

 39 42  0  0  0  0  0  0  0  0999 V2000
   -3.7112   -1.4656    0.0000 C   0  0  0  0  0  0  0  0  0  0  0  0
   -3.7112   -0.6406    0.0000 C   0  0  0  0  0  0  0  0  0  0  0  0
   -2.9967   -0.2281    0.0000 C   0  0  0  0  0  0  0  0  0  0  0  0
   -2.9967   -1.8781    0.0000 C   0  0  0  0  0  0  0  0  0  0  0  0
   -2.5842   -2.5926    0.0000 C   0  0  0  0  0  0  0  0  0  0  0  0
   -3.4092   -2.5926    0.0000 C   0  0  0  0  0  0  0  0  0  0  0  0
   -2.2823   -1.4656    0.0000 C   0  0  0  0  0  0  0  0  0  0  0  0
   -1.5678   -1.8781    0.0000 C   0  0  0  0  0  0  0  0  0  0  0  0
   -0.8533   -1.4656    0.0000 C   0  0  0  0  0  0  0  0  0  0  0  0
   -0.8533   -0.6406    0.0000 C   0  0  0  0  0  0  0  0  0  0  0  0
   -0.1389   -0.2281    0.0000 C   0  0  0  0  0  0  0  0  0  0  0  0
   -0.1389   -1.0531    0.0000 C   0  0  0  0  0  0  0  0  0  0  0  0
    0.6458   -0.4831    0.0000 C   0  0  0  0  0  0  0  0  0  0  0  0
    1.1307    0.1844    0.0000 C   0  0  0  0  0  0  0  0  0  0  0  0
    0.6458    0.8518    0.0000 C   0  0  0  0  0  0  0  0  0  0  0  0
    0.9007    1.6364    0.0000 C   0  0  0  0  0  0  0  0  0  0  0  0
    1.7077    1.8080    0.0000 C   0  0  0  0  0  0  0  0  0  0  0  0
    2.2597    1.1949    0.0000 C   0  0  0  0  0  0  0  0  0  0  0  0
    3.0667    1.3664    0.0000 C   0  0  0  0  0  0  0  0  0  0  0  0
    3.6187    0.7533    0.0000 C   0  0  0  0  0  0  0  0  0  0  0  0
    3.3638   -0.0313    0.0000 C   0  0  0  0  0  0  0  0  0  0  0  0
    4.4257    0.9248    0.0000 C   0  0  0  0  0  0  0  0  0  0  0  0
    0.7292    2.4434    0.0000 C   0  0  0  0  0  0  0  0  0  0  0  0
   -0.1389    0.5969    0.0000 C   0  0  0  0  0  0  0  0  0  0  0  0
   -0.1389    1.4219    0.0000 C   0  0  0  0  0  0  0  0  0  0  0  0
   -0.8533    1.0094    0.0000 C   0  0  0  0  0  0  0  0  0  0  0  0
   -1.5678    0.5969    0.0000 C   0  0  0  0  0  0  0  0  0  0  0  0
   -1.5678   -0.2281    0.0000 C   0  0  0  0  0  0  0  0  0  0  0  0
   -2.2823   -0.6406    0.0000 C   0  0  0  0  0  0  0  0  0  0  0  0
   -4.4257   -1.8781    0.0000 O   0  0  0  0  0  0  0  0  0  0  0  0
   -2.2823    1.0094    0.0000 O   0  0  0  0  0  0  0  0  0  0  0  0
    1.9626    2.5926    0.0000 O   0  0  0  0  0  0  0  0  0  0  0  0
   -1.5678   -1.0531    0.0000 C   0  0  0  0  0  0  0  0  0  0  0  0
    4.1707    0.1402    0.0000 O   0  0  0  0  0  0  0  0  0  0  0  0
    0.1161    1.8914    0.0000 O   0  0  0  0  0  0  0  0  0  0  0  0
    1.9557    0.1844    0.0000 O   0  0  0  0  0  0  0  0  0  0  0  0
   -4.4257   -0.2281    0.0000 O   0  0  0  0  0  0  0  0  0  0  0  0
   -2.2823    0.1844    0.0000 H   0  0  0  0  0  0  0  0  0  0  0  0
   -0.8533    0.1844    0.0000 H   0  0  0  0  0  0  0  0  0  0  0  0
  1  2  1  0      
  2  3  2  0      
  1  4  1  0      
  4  5  1  0      
  4  6  1  0      
  4  7  1  0      
  7  8  2  0      
  8  9  1  0      
  9 10  1  0      
 10 11  1  0      
 11 12  1  6      
 11 13  1  0      
 13 14  1  0      
 14 15  1  0      
 15 16  1  1      
 16 17  1  0      
 17 18  1  0      
 18 19  2  0      
 19 20  1  0      
 20 21  1  0      
 20 22  1  0      
 16 23  1  6      
 15 24  1  0      
 11 24  1  0      
 24 25  1  1      
 24 26  1  0      
 26 27  1  0      
 27 28  1  0      
 10 28  1  0      
 28 29  1  0      
  3 29  1  0      
  7 29  1  0      
  1 30  2  0      
 27 31  2  0      
 17 32  2  0      
 28 33  1  1      
 20 34  1  0      
 16 35  1  1      
 14 36  1  6      
  2 37  1  0      
 29 38  1  6      
 10 39  1  1      
M  END

>  <RackCode>
HYCPK72335

>  <Cat. No.>
HY-N1405

>  <Product Name>
Cucurbitacin I

>  <ROW>
B

>  <COLUMN>
15

>  <CAS No.>
2222-07-3

>  <MWt>
514.65

>  <Target>
JAK; STAT

>  <Saltdate>
Free Base

>  <Smiles>
CC(C)(C1=CC[C@@]2([H])[C@@]3(C[C@@H](O)[C@@H]([C@]3(C4)C)[C@@](C)(O)C(/C=C/C(C)(O)C)=O)C)C(C(O)=C[C@@]1([H])[C@]2(C)C4=O)=O

>  <Solvent>
DMSO Solution

>  <Batch No.>
257484

>  <Quantity>
10mM  * 50uL

>  <Pathway>
Epigenetics; JAK/STAT Signaling; Protein Tyrosine Kinase/RTK; Stem Cell/Wnt

>  <Synonyms>
Elatericin B; JSI-124; NSC-521777

>  <Formula>
C30H42O7

>  <Research_Area>
Cancer

>  <Clinical_Information>
No Development Reported

>  <SUPPLIER>
MedChemExpress

$$$$
Untitled Document
  ChemDraw01031716442D

 22 24  0  0  0  0  0  0  0  0999 V2000
   -2.2602    1.4581    0.0000 C   0  0  0  0  0  0  0  0  0  0  0  0
   -2.2602    0.6331    0.0000 C   0  0  0  0  0  0  0  0  0  0  0  0
   -1.5457    0.2206    0.0000 C   0  0  0  0  0  0  0  0  0  0  0  0
   -0.8312    0.6331    0.0000 C   0  0  0  0  0  0  0  0  0  0  0  0
   -0.8312    1.4581    0.0000 C   0  0  0  0  0  0  0  0  0  0  0  0
   -1.5457    1.8707    0.0000 C   0  0  0  0  0  0  0  0  0  0  0  0
   -0.0465    0.3781    0.0000 N   0  0  0  0  0  0  0  0  0  0  0  0
    0.4384    1.0456    0.0000 C   0  0  0  0  0  0  0  0  0  0  0  0
   -0.0465    1.7131    0.0000 C   0  0  0  0  0  0  0  0  0  0  0  0
    0.2076   -0.4039    0.0000 C   0  0  0  0  0  0  0  0  0  0  0  0
    1.0119   -0.5748    0.0000 C   0  0  0  0  0  0  0  0  0  0  0  0
    1.2668   -1.3594    0.0000 C   0  0  0  0  0  0  0  0  0  0  0  0
    2.0738   -1.5310    0.0000 C   0  0  0  0  0  0  0  0  0  0  0  0
    2.6258   -0.9179    0.0000 C   0  0  0  0  0  0  0  0  0  0  0  0
    2.3708   -0.1331    0.0000 C   0  0  0  0  0  0  0  0  0  0  0  0
    1.5638    0.0384    0.0000 C   0  0  0  0  0  0  0  0  0  0  0  0
    3.4301   -1.0888    0.0000 O   0  0  0  0  0  0  0  0  0  0  0  0
    3.6842   -1.8707    0.0000 C   0  0  0  0  0  0  0  0  0  0  0  0
   -2.9722    0.2219    0.0000 C   0  0  0  0  0  0  0  0  0  0  0  0
   -2.9722   -0.6002    0.0000 O   0  0  0  0  0  0  0  0  0  0  0  0
   -3.6842    0.6331    0.0000 N   0  0  0  0  0  0  0  0  0  0  0  0
   -3.6842    1.4552    0.0000 O   0  0  0  0  0  0  0  0  0  0  0  0
  1  2  2  0      
  2  3  1  0      
  3  4  2  0      
  4  5  1  0      
  5  6  2  0      
  6  1  1  0      
  4  7  1  0      
  7  8  1  0      
  8  9  2  0      
  9  5  1  0      
  7 10  1  0      
 10 11  1  0      
 11 12  2  0      
 12 13  1  0      
 13 14  2  0      
 14 15  1  0      
 15 16  2  0      
 16 11  1  0      
 14 17  1  0      
 17 18  1  0      
  2 19  1  0      
 19 20  2  0      
 19 21  1  0      
 21 22  1  0      
M  END

>  <RackCode>
HYCPK72335

>  <Cat. No.>
HY-15224

>  <Product Name>
PCI-34051

>  <ROW>
C

>  <COLUMN>
15

>  <CAS No.>
950762-95-5

>  <MWt>
296.32

>  <Target>
Apoptosis; HDAC

>  <Saltdate>
Free Base

>  <Smiles>
COC(C=C1)=CC=C1CN2C3=CC(C(NO)=O)=CC=C3C=C2

>  <Solvent>
DMSO Solution

>  <Batch No.>
22984

>  <Quantity>
10mM  * 50uL

>  <Pathway>
Apoptosis; Cell Cycle/DNA Damage; Epigenetics

>  <Synonyms>


>  <Formula>
C17H16N2O3

>  <Research_Area>
Cancer

>  <Clinical_Information>
No Development Reported

>  <SUPPLIER>
MedChemExpress

$$$$
Untitled Document
  ChemDraw12032215232D

 30 32  0  0  0  0  0  0  0  0999 V2000
    3.2151    0.6187    0.0000 C   0  0  0  0  0  0  0  0  0  0  0  0
    2.5006    0.2062    0.0000 N   0  0  0  0  0  0  0  0  0  0  0  0
    1.7862    0.6187    0.0000 C   0  0  0  0  0  0  0  0  0  0  0  0
    1.7862    1.4437    0.0000 O   0  0  0  0  0  0  0  0  0  0  0  0
    1.0717    0.2062    0.0000 C   0  0  0  0  0  0  0  0  0  0  0  0
    1.0717   -0.6187    0.0000 C   0  0  0  0  0  0  0  0  0  0  0  0
    0.3572   -1.0313    0.0000 C   0  0  0  0  0  0  0  0  0  0  0  0
    0.3572   -1.8563    0.0000 O   0  0  0  0  0  0  0  0  0  0  0  0
   -0.3572   -2.2687    0.0000 C   0  0  0  0  0  0  0  0  0  0  0  0
   -1.0717   -1.8563    0.0000 F   0  0  0  0  0  0  0  0  0  0  0  0
   -1.0717   -2.6812    0.0000 F   0  0  0  0  0  0  0  0  0  0  0  0
   -0.3572   -3.0938    0.0000 F   0  0  0  0  0  0  0  0  0  0  0  0
   -0.3572   -0.6187    0.0000 C   0  0  0  0  0  0  0  0  0  0  0  0
   -0.3572    0.2062    0.0000 C   0  0  0  0  0  0  0  0  0  0  0  0
   -1.0717    0.6187    0.0000 O   0  0  0  0  0  0  0  0  0  0  0  0
   -1.7862    0.2062    0.0000 C   0  0  0  0  0  0  0  0  0  0  0  0
   -2.5006    0.6187    0.0000 C   0  0  0  0  0  0  0  0  0  0  0  0
   -2.5006    1.4437    0.0000 C   0  0  0  0  0  0  0  0  0  0  0  0
   -1.7862    1.8563    0.0000 C   0  0  0  0  0  0  0  0  0  0  0  0
   -1.7862    2.6812    0.0000 C   0  0  0  0  0  0  0  0  0  0  0  0
   -1.0717    3.0938    0.0000 O   0  0  0  0  0  0  0  0  0  0  0  0
   -0.3572    2.6812    0.0000 C   0  0  0  0  0  0  0  0  0  0  0  0
   -2.5006    3.0938    0.0000 N   0  0  0  0  0  0  0  0  0  0  0  0
   -3.2151    2.6812    0.0000 C   0  0  0  0  0  0  0  0  0  0  0  0
   -3.2151    1.8563    0.0000 C   0  0  0  0  0  0  0  0  0  0  0  0
   -3.2151    0.2062    0.0000 C   0  0  0  0  0  0  0  0  0  0  0  0
   -3.2151   -0.6187    0.0000 C   0  0  0  0  0  0  0  0  0  0  0  0
   -2.5006   -1.0313    0.0000 C   0  0  0  0  0  0  0  0  0  0  0  0
   -1.7862   -0.6187    0.0000 N   0  0  0  0  0  0  0  0  0  0  0  0
    0.3572    0.6187    0.0000 C   0  0  0  0  0  0  0  0  0  0  0  0
  1  2  1  0      
  2  3  1  0      
  3  4  2  0      
  3  5  1  0      
  5  6  2  0      
  6  7  1  0      
  7  8  1  0      
  8  9  1  0      
  9 10  1  0      
  9 11  1  0      
  9 12  1  0      
  7 13  2  0      
 13 14  1  0      
 14 15  1  0      
 15 16  1  0      
 16 17  2  0      
 17 18  1  0      
 18 19  2  0      
 19 20  1  0      
 20 21  1  0      
 21 22  1  0      
 20 23  2  0      
 23 24  1  0      
 24 25  2  0      
 18 25  1  0      
 17 26  1  0      
 26 27  2  0      
 27 28  1  0      
 28 29  2  0      
 16 29  1  0      
 14 30  2  0      
  5 30  1  0      
M  END

>  <RackCode>
HYCPK72335

>  <Cat. No.>
HY-151971

>  <Product Name>
Aurora Kinases-IN-3

>  <ROW>
D

>  <COLUMN>
15

>  <CAS No.>
2840558-83-8

>  <MWt>
419.35

>  <Target>
Aurora Kinase; Polo-like Kinase (PLK)

>  <Saltdate>


>  <Smiles>
CNC(C1=CC(OC(F)(F)F)=CC(OC2=C(C=CC=N2)C3=CC(OC)=NC=C3)=C1)=O

>  <Solvent>
DMSO Solution

>  <Batch No.>
356257

>  <Quantity>
10mM  * 50uL

>  <Pathway>
Cell Cycle/DNA Damage; Epigenetics

>  <Synonyms>


>  <Formula>
C20H16F3N3O4

>  <Research_Area>
Cancer

>  <Clinical_Information>
No Development Reported

>  <SUPPLIER>
MedChemExpress

$$$$
Untitled Document
  ChemDraw04031815002D

 25 27  0  0  0  0  0  0  0  0999 V2000
   -3.1342    0.2070    0.0000 C   0  0  0  0  0  0  0  0  0  0  0  0
   -3.1342   -0.6180    0.0000 C   0  0  0  0  0  0  0  0  0  0  0  0
   -2.4197   -1.0305    0.0000 C   0  0  0  0  0  0  0  0  0  0  0  0
   -1.7052   -0.6180    0.0000 C   0  0  0  0  0  0  0  0  0  0  0  0
   -1.7052    0.2070    0.0000 C   0  0  0  0  0  0  0  0  0  0  0  0
   -2.4197    0.6195    0.0000 C   0  0  0  0  0  0  0  0  0  0  0  0
   -2.4197   -1.8527    0.0000 Br  0  0  0  0  0  0  0  0  0  0  0  0
   -2.4197    1.4416    0.0000 O   0  0  0  0  0  0  0  0  0  0  0  0
   -3.1317    1.8527    0.0000 C   0  0  0  0  0  0  0  0  0  0  0  0
   -0.9932    0.6180    0.0000 S   0  0  0  0  0  0  0  0  0  0  0  0
   -0.5807   -0.0964    0.0000 O   0  0  0  0  0  0  0  0  0  0  0  0
   -1.4057    1.3325    0.0000 O   0  0  0  0  0  0  0  0  0  0  0  0
   -0.2788    1.0305    0.0000 N   0  0  0  0  0  0  0  0  0  0  0  0
    0.4357    0.6180    0.0000 C   0  0  0  0  0  0  0  0  0  0  0  0
    0.4357   -0.2070    0.0000 C   0  0  0  0  0  0  0  0  0  0  0  0
    1.1502   -0.6195    0.0000 C   0  0  0  0  0  0  0  0  0  0  0  0
    1.8646   -0.2070    0.0000 C   0  0  0  0  0  0  0  0  0  0  0  0
    1.8646    0.6180    0.0000 C   0  0  0  0  0  0  0  0  0  0  0  0
    1.1502    1.0305    0.0000 C   0  0  0  0  0  0  0  0  0  0  0  0
   -0.2788   -0.6195    0.0000 O   0  0  0  0  0  0  0  0  0  0  0  0
   -0.2788   -1.4445    0.0000 C   0  0  0  0  0  0  0  0  0  0  0  0
    2.6493   -0.4619    0.0000 O   0  0  0  0  0  0  0  0  0  0  0  0
    3.1342    0.2055    0.0000 N   0  0  0  0  0  0  0  0  0  0  0  0
    2.6493    0.8730    0.0000 C   0  0  0  0  0  0  0  0  0  0  0  0
    2.9033    1.6549    0.0000 C   0  0  0  0  0  0  0  0  0  0  0  0
  1  2  2  0      
  2  3  1  0      
  3  4  2  0      
  4  5  1  0      
  5  6  2  0      
  6  1  1  0      
  3  7  1  0      
  6  8  1  0      
  8  9  1  0      
  5 10  1  0      
 10 11  2  0      
 10 12  2  0      
 10 13  1  0      
 13 14  1  0      
 14 15  2  0      
 15 16  1  0      
 16 17  2  0      
 17 18  1  0      
 18 19  2  0      
 19 14  1  0      
 15 20  1  0      
 20 21  1  0      
 17 22  1  0      
 22 23  1  0      
 23 24  2  0      
 24 18  1  0      
 24 25  1  0      
M  END

>  <RackCode>
HYCPK72335

>  <Cat. No.>
HY-111502

>  <Product Name>
Y06036

>  <ROW>
E

>  <COLUMN>
15

>  <CAS No.>
1832671-96-1

>  <MWt>
427.27

>  <Target>
Epigenetic Reader Domain

>  <Saltdate>
Free Base

>  <Smiles>
BrC1=CC(S(=O)(NC2=C(OC)C=C(ON=C3C)C3=C2)=O)=C(OC)C=C1

>  <Solvent>
DMSO Solution

>  <Batch No.>
37477

>  <Quantity>
10mM  * 50uL

>  <Pathway>
Epigenetics

>  <Synonyms>


>  <Formula>
C16H15BrN2O5S

>  <Research_Area>
Cancer

>  <Clinical_Information>
No Development Reported

>  <SUPPLIER>
MedChemExpress

$$$$
Untitled Document
  ChemDraw04192115222D

 12 13  0  0  0  0  0  0  0  0999 V2000
    1.0717   -0.8250    0.0000 C   0  0  0  0  0  0  0  0  0  0  0  0
    0.3572   -1.2375    0.0000 N   0  0  0  0  0  0  0  0  0  0  0  0
   -0.3572   -0.8250    0.0000 C   0  0  0  0  0  0  0  0  0  0  0  0
   -0.3572    0.0000    0.0000 C   0  0  0  0  0  0  0  0  0  0  0  0
    0.3572    0.4125    0.0000 C   0  0  0  0  0  0  0  0  0  0  0  0
    1.0717    0.0000    0.0000 N   0  0  0  0  0  0  0  0  0  0  0  0
   -1.0717    0.4125    0.0000 C   0  0  0  0  0  0  0  0  0  0  0  0
   -1.0717   -1.2375    0.0000 C   0  0  0  0  0  0  0  0  0  0  0  0
   -1.7861   -0.8250    0.0000 C   0  0  0  0  0  0  0  0  0  0  0  0
   -1.7861    0.0000    0.0000 S   0  0  0  0  0  0  0  0  0  0  0  0
    0.3572    1.2375    0.0000 O   0  0  0  0  0  0  0  0  0  0  0  0
    1.7861   -1.2375    0.0000 C   0  0  0  0  0  0  0  0  0  0  0  0
  1  2  1  0      
  2  3  1  0      
  3  4  2  0      
  4  5  1  0      
  5  6  1  0      
  1  6  2  0      
  8  9  1  0      
  9 10  1  0      
  7 10  1  0      
  8  3  1  0      
  7  4  1  0      
  5 11  2  0      
  1 12  1  0      
M  END

>  <RackCode>
HYCPK72335

>  <Cat. No.>
HY-105692

>  <Product Name>
DR2313

>  <ROW>
F

>  <COLUMN>
15

>  <CAS No.>
284028-90-6

>  <MWt>
182.24

>  <Target>
PARP

>  <Saltdate>


>  <Smiles>
O=C1C(CSCC2)=C2NC(C)=N1

>  <Solvent>
DMSO Solution

>  <Batch No.>
107263

>  <Quantity>
10mM  * 50uL

>  <Pathway>
Cell Cycle/DNA Damage; Epigenetics

>  <Synonyms>


>  <Formula>
C8H10N2OS

>  <Research_Area>
Neurological Disease

>  <Clinical_Information>
No Development Reported

>  <SUPPLIER>
MedChemExpress

$$$$
Untitled Document
  ChemDraw05061911302D

 28 31  0  0  0  0  0  0  0  0999 V2000
    1.7617   -0.7145    0.0000 C   0  0  0  0  0  0  0  0  0  0  0  0
    2.1742    0.0000    0.0000 N   0  0  0  0  0  0  0  0  0  0  0  0
    2.9992    0.0000    0.0000 C   0  0  0  0  0  0  0  0  0  0  0  0
    3.4117   -0.7145    0.0000 C   0  0  0  0  0  0  0  0  0  0  0  0
    2.9992   -1.4289    0.0000 C   0  0  0  0  0  0  0  0  0  0  0  0
    2.1742   -1.4289    0.0000 N   0  0  0  0  0  0  0  0  0  0  0  0
    0.9367   -0.7145    0.0000 N   0  0  0  0  0  0  0  0  0  0  0  0
    3.4117    0.7145    0.0000 N   0  0  0  0  0  0  0  0  0  0  0  0
    3.4117   -2.1434    0.0000 C   0  0  0  0  0  0  0  0  0  0  0  0
    4.2367    0.7145    0.0000 C   0  0  0  0  0  0  0  0  0  0  0  0
    0.5242    0.0000    0.0000 C   0  0  0  0  0  0  0  0  0  0  0  0
   -0.3008    0.0000    0.0000 C   0  0  0  0  0  0  0  0  0  0  0  0
   -0.7133    0.7145    0.0000 C   0  0  0  0  0  0  0  0  0  0  0  0
   -0.3008    1.4289    0.0000 C   0  0  0  0  0  0  0  0  0  0  0  0
    0.5242    1.4289    0.0000 C   0  0  0  0  0  0  0  0  0  0  0  0
    0.9367    0.7145    0.0000 C   0  0  0  0  0  0  0  0  0  0  0  0
   -3.5223    1.5395    0.0000 C   0  0  0  0  0  0  0  0  0  0  0  0
   -2.8078    1.1270    0.0000 C   0  0  0  0  0  0  0  0  0  0  0  0
   -2.8078    0.3020    0.0000 C   0  0  0  0  0  0  0  0  0  0  0  0
   -3.5223   -0.1105    0.0000 C   0  0  0  0  0  0  0  0  0  0  0  0
   -4.2367    0.3020    0.0000 C   0  0  0  0  0  0  0  0  0  0  0  0
   -4.2367    1.1270    0.0000 N   0  0  0  0  0  0  0  0  0  0  0  0
   -2.0232    1.3819    0.0000 N   0  0  0  0  0  0  0  0  0  0  0  0
   -2.0232    0.0470    0.0000 C   0  0  0  0  0  0  0  0  0  0  0  0
   -1.5383    0.7145    0.0000 C   0  0  0  0  0  0  0  0  0  0  0  0
   -1.7682   -0.7376    0.0000 C   0  0  0  0  0  0  0  0  0  0  0  0
   -0.7133    2.1434    0.0000 O   0  0  0  0  0  0  0  0  0  0  0  0
   -1.5383    2.1434    0.0000 C   0  0  0  0  0  0  0  0  0  0  0  0
  1  2  1  0      
  2  3  2  0      
  3  4  1  0      
  4  5  2  0      
  5  6  1  0      
  1  6  2  0      
  1  7  1  0      
  3  8  1  0      
  5  9  1  0      
  8 10  1  0      
 11 12  1  0      
 12 13  2  0      
 13 14  1  0      
 14 15  2  0      
 15 16  1  0      
 11 16  2  0      
 17 18  1  0      
 18 19  2  0      
 19 20  1  0      
 20 21  2  0      
 21 22  1  0      
 17 22  2  0      
 24 25  2  0      
 23 25  1  0      
 18 23  1  0      
 19 24  1  0      
 24 26  1  0      
 13 25  1  0      
 27 28  1  0      
 14 27  1  0      
  7 11  1  0      
M  END

>  <RackCode>
HYCPK72335

>  <Cat. No.>
HY-111904

>  <Product Name>
EHMT2-IN-2

>  <ROW>
G

>  <COLUMN>
15

>  <CAS No.>
2230850-47-0

>  <MWt>
374.44

>  <Target>
Histone Methyltransferase

>  <Saltdate>
Free Base

>  <Smiles>
CC1=CC(NC)=NC(NC2=CC=C(OC)C(C(N3)=C(C)C4=C3C=NC=C4)=C2)=N1

>  <Solvent>
DMSO Solution

>  <Batch No.>
306635

>  <Quantity>
10mM  * 50uL

>  <Pathway>
Epigenetics

>  <Synonyms>


>  <Formula>
C21H22N6O

>  <Research_Area>
Cancer

>  <Clinical_Information>
No Development Reported

>  <SUPPLIER>
MedChemExpress

$$$$
Untitled Document
  ChemDraw03141615122D

 51 56  0  0  0  0  0  0  0  0999 V2000
    0.0000    2.0625    0.0000 C   0  0  0  0  0  0  0  0  0  0  0  0
    0.0000    1.2375    0.0000 C   0  0  0  0  0  0  0  0  0  0  0  0
    0.7145    0.8250    0.0000 C   0  0  0  0  0  0  0  0  0  0  0  0
    1.4289    1.2375    0.0000 C   0  0  0  0  0  0  0  0  0  0  0  0
    1.4289    2.0625    0.0000 C   0  0  0  0  0  0  0  0  0  0  0  0
    0.7145    2.4750    0.0000 O   0  0  0  0  0  0  0  0  0  0  0  0
    2.1434    2.4750    0.0000 C   0  0  0  0  0  0  0  0  0  0  0  0
    2.8579    2.0625    0.0000 C   0  0  0  0  0  0  0  0  0  0  0  0
    2.8579    1.2375    0.0000 C   0  0  0  0  0  0  0  0  0  0  0  0
    2.1434    0.8250    0.0000 C   0  0  0  0  0  0  0  0  0  0  0  0
    0.7145    0.0000    0.0000 O   0  0  0  0  0  0  0  0  0  0  0  0
    3.5724    2.4750    0.0000 O   0  0  0  0  0  0  0  0  0  0  0  0
    2.1434    0.0000    0.0000 O   0  0  0  0  0  0  0  0  0  0  0  0
   -0.7145    2.4750    0.0000 C   0  0  0  0  0  0  0  0  0  0  0  0
   -1.4289    2.0625    0.0000 C   0  0  0  0  0  0  0  0  0  0  0  0
   -2.1434    2.4750    0.0000 C   0  0  0  0  0  0  0  0  0  0  0  0
   -2.1434    3.3000    0.0000 C   0  0  0  0  0  0  0  0  0  0  0  0
   -1.4289    3.7125    0.0000 C   0  0  0  0  0  0  0  0  0  0  0  0
   -0.7145    3.3000    0.0000 C   0  0  0  0  0  0  0  0  0  0  0  0
   -2.8579    3.7125    0.0000 O   0  0  0  0  0  0  0  0  0  0  0  0
   -3.5724    3.3000    0.0000 C   0  0  0  0  0  0  0  0  0  0  0  0
   -3.5724    2.4750    0.0000 C   0  0  0  0  0  0  0  0  0  0  0  0
   -2.8579    2.0625    0.0000 O   0  0  0  0  0  0  0  0  0  0  0  0
   -4.2868    2.0625    0.0000 C   0  0  0  0  0  0  0  0  0  0  0  0
   -4.2868    1.2375    0.0000 O   0  0  0  0  0  0  0  0  0  0  0  0
   -5.0013    2.4750    0.0000 C   0  0  0  0  0  0  0  0  0  0  0  0
   -5.7158    2.0625    0.0000 O   0  0  0  0  0  0  0  0  0  0  0  0
   -5.0013    3.3000    0.0000 C   0  0  0  0  0  0  0  0  0  0  0  0
   -4.2868    3.7125    0.0000 O   0  0  0  0  0  0  0  0  0  0  0  0
   -5.7158    3.7125    0.0000 C   0  0  0  0  0  0  0  0  0  0  0  0
   -6.4302    3.3000    0.0000 O   0  0  0  0  0  0  0  0  0  0  0  0
    3.5724    0.8250    0.0000 C   0  0  0  0  0  0  0  0  0  0  0  0
    3.5724    0.0000    0.0000 C   0  0  0  0  0  0  0  0  0  0  0  0
    2.8579   -0.4125    0.0000 O   0  0  0  0  0  0  0  0  0  0  0  0
    4.2868   -0.4125    0.0000 C   0  0  0  0  0  0  0  0  0  0  0  0
    4.2868   -1.2375    0.0000 O   0  0  0  0  0  0  0  0  0  0  0  0
    5.0013    0.0000    0.0000 C   0  0  0  0  0  0  0  0  0  0  0  0
    5.7158   -0.4125    0.0000 O   0  0  0  0  0  0  0  0  0  0  0  0
    5.0013    0.8250    0.0000 C   0  0  0  0  0  0  0  0  0  0  0  0
    4.2868    1.2375    0.0000 O   0  0  0  0  0  0  0  0  0  0  0  0
    5.7158    1.2375    0.0000 C   0  0  0  0  0  0  0  0  0  0  0  0
    6.4302    0.8250    0.0000 O   0  0  0  0  0  0  0  0  0  0  0  0
    2.8579   -1.2375    0.0000 C   0  0  0  0  0  0  0  0  0  0  0  0
    2.1434   -1.6500    0.0000 C   0  0  0  0  0  0  0  0  0  0  0  0
    1.4289   -1.2375    0.0000 O   0  0  0  0  0  0  0  0  0  0  0  0
    2.1434   -2.4750    0.0000 C   0  0  0  0  0  0  0  0  0  0  0  0
    1.4289   -2.8875    0.0000 O   0  0  0  0  0  0  0  0  0  0  0  0
    2.8579   -2.8875    0.0000 C   0  0  0  0  0  0  0  0  0  0  0  0
    2.8579   -3.7125    0.0000 O   0  0  0  0  0  0  0  0  0  0  0  0
    3.5724   -2.4750    0.0000 C   0  0  0  0  0  0  0  0  0  0  0  0
    3.5724   -1.6500    0.0000 O   0  0  0  0  0  0  0  0  0  0  0  0
  1  2  2  0      
  2  3  1  0      
  3  4  1  0      
  4  5  1  0      
  5  6  1  0      
  1  6  1  0      
  7  8  1  0      
  8  9  2  0      
  9 10  1  0      
  4 10  2  0      
  5  7  2  0      
  3 11  2  0      
  8 12  1  0      
 10 13  1  0      
 14 15  1  0      
 15 16  2  0      
 16 17  1  0      
 17 18  2  0      
 18 19  1  0      
 14 19  2  0      
 21 22  1  0      
 22 23  1  6      
 22 24  1  0      
 24 25  1  1      
 24 26  1  0      
 26 27  1  6      
 26 28  1  0      
 28 29  1  0      
 28 30  1  1      
 30 31  1  0      
 21 29  1  0      
 21 20  1  1      
 17 20  1  0      
  1 14  1  0      
 32 33  1  0      
 33 34  1  1      
 33 35  1  0      
 35 36  1  6      
 35 37  1  0      
 37 38  1  1      
 37 39  1  0      
 39 40  1  0      
 39 41  1  6      
 41 42  1  0      
 32 40  1  0      
 43 44  1  0      
 44 45  1  1      
 44 46  1  0      
 46 47  1  6      
 46 48  1  0      
 48 49  1  6      
 48 50  1  0      
 50 51  1  0      
 43 51  1  0      
 43 34  1  6      
 32  9  1  6      
M  END

>  <RackCode>
HYCPK72335

>  <Cat. No.>
HY-N1419

>  <Product Name>
Vaccarin

>  <ROW>
H

>  <COLUMN>
15

>  <CAS No.>
53452-16-7

>  <MWt>
726.63

>  <Target>
AMPK

>  <Saltdate>


>  <Smiles>
O=C1C=C(C2=CC=C(O[C@H]3[C@@H]([C@H]([C@@H]([C@@H](CO)O3)O)O)O)C=C2)OC4=CC(O)=C([C@H]5[C@@H]([C@H]([C@@H]([C@@H](CO)O5)O)O)O[C@H]6[C@@H]([C@H]([C@H](CO6)O)O)O)C(O)=C14

>  <Solvent>
DMSO Solution

>  <Batch No.>
124226

>  <Quantity>
10mM  * 50uL

>  <Pathway>
Epigenetics; PI3K/Akt/mTOR

>  <Synonyms>


>  <Formula>
C32H38O19

>  <Research_Area>
Metabolic Disease

>  <Clinical_Information>
No Development Reported

>  <SUPPLIER>
MedChemExpress

$$$$
Untitled Document
  ChemDraw09281710382D

 28 31  0  0  0  0  0  0  0  0999 V2000
   -1.0180    1.1693    0.0000 N   0  0  0  0  0  0  0  0  0  0  0  0
   -1.0180    0.3443    0.0000 C   0  0  0  0  0  0  0  0  0  0  0  0
   -0.3730   -0.1701    0.0000 C   0  0  0  0  0  0  0  0  0  0  0  0
    0.4313    0.0135    0.0000 C   0  0  0  0  0  0  0  0  0  0  0  0
    0.7893    0.7568    0.0000 N   0  0  0  0  0  0  0  0  0  0  0  0
    0.4313    1.5001    0.0000 C   0  0  0  0  0  0  0  0  0  0  0  0
   -0.3730    1.6837    0.0000 C   0  0  0  0  0  0  0  0  0  0  0  0
   -0.6629    2.4561    0.0000 N   0  0  0  0  0  0  0  0  0  0  0  0
   -1.4870    2.4561    0.0000 N   0  0  0  0  0  0  0  0  0  0  0  0
   -1.7065    1.6837    0.0000 C   0  0  0  0  0  0  0  0  0  0  0  0
   -2.4853    1.4203    0.0000 C   0  0  0  0  0  0  0  0  0  0  0  0
    0.9439   -0.6293    0.0000 C   0  0  0  0  0  0  0  0  0  0  0  0
    0.6425   -1.3972    0.0000 C   0  0  0  0  0  0  0  0  0  0  0  0
    1.1569   -2.0423    0.0000 C   0  0  0  0  0  0  0  0  0  0  0  0
    1.9727   -1.9193    0.0000 C   0  0  0  0  0  0  0  0  0  0  0  0
    2.2741   -1.1513    0.0000 C   0  0  0  0  0  0  0  0  0  0  0  0
    1.7597   -0.5063    0.0000 C   0  0  0  0  0  0  0  0  0  0  0  0
    2.4853   -2.5621    0.0000 Cl  0  0  0  0  0  0  0  0  0  0  0  0
    0.9439    2.1429    0.0000 C   0  0  0  0  0  0  0  0  0  0  0  0
    1.7569    2.0203    0.0000 C   0  0  0  0  0  0  0  0  0  0  0  0
    2.0573    1.2550    0.0000 O   0  0  0  0  0  0  0  0  0  0  0  0
    2.2695    2.6631    0.0000 O   0  0  0  0  0  0  0  0  0  0  0  0
   -1.7859    0.0429    0.0000 C   0  0  0  0  0  0  0  0  0  0  0  0
   -1.9089   -0.7729    0.0000 C   0  0  0  0  0  0  0  0  0  0  0  0
   -1.2639   -1.2873    0.0000 C   0  0  0  0  0  0  0  0  0  0  0  0
   -0.4959   -0.9859    0.0000 C   0  0  0  0  0  0  0  0  0  0  0  0
   -1.3864   -2.1002    0.0000 O   0  0  0  0  0  0  0  0  0  0  0  0
   -0.7872   -2.6631    0.0000 C   0  0  0  0  0  0  0  0  0  0  0  0
  1  2  1  0      
  2  3  2  0      
  3  4  1  0      
  4  5  2  0      
  5  6  1  0      
  6  7  1  0      
  7  1  1  0      
  7  8  2  0      
  8  9  1  0      
  9 10  2  0      
 10  1  1  0      
 10 11  1  0      
  4 12  1  0      
 12 13  2  0      
 13 14  1  0      
 14 15  2  0      
 15 16  1  0      
 16 17  2  0      
 17 12  1  0      
 15 18  1  0      
  6 19  1  6      
 19 20  1  0      
 20 21  1  0      
 20 22  2  0      
  2 23  1  0      
 23 24  2  0      
 24 25  1  0      
 25 26  2  0      
 26  3  1  0      
 25 27  1  0      
 27 28  1  0      
M  END

>  <RackCode>
HYCPK72335

>  <Cat. No.>
HY-107443

>  <Product Name>
I-BET762 carboxylic acid

>  <ROW>
I

>  <COLUMN>
15

>  <CAS No.>
1300019-38-8

>  <MWt>
396.83

>  <Target>
Epigenetic Reader Domain; Ligands for Target Protein for PROTAC

>  <Saltdate>
Free Acid

>  <Smiles>
CC1=NN=C2[C@H](CC(O)=O)N=C(C3=CC=C(Cl)C=C3)C4=C(C=CC(OC)=C4)N21

>  <Solvent>
DMSO Solution

>  <Batch No.>
31510

>  <Quantity>
10mM  * 50uL

>  <Pathway>
Epigenetics; PROTAC

>  <Synonyms>
Molibresib carboxylic acid; GSK525762A carboxylic acid; PROTAC BRD4-binding moiety 2

>  <Formula>
C20H17ClN4O3

>  <Research_Area>
Cancer

>  <Clinical_Information>
No Development Reported

>  <SUPPLIER>
MedChemExpress

$$$$
Untitled Document
  ChemDraw09062114042D

 21 24  0  0  0  0  0  0  0  0999 V2000
    0.1573    1.2657    0.0000 C   0  0  0  0  0  0  0  0  0  0  0  0
    0.1573    0.4407    0.0000 C   0  0  0  0  0  0  0  0  0  0  0  0
   -0.5571    0.0282    0.0000 C   0  0  0  0  0  0  0  0  0  0  0  0
   -1.2716    0.4407    0.0000 C   0  0  0  0  0  0  0  0  0  0  0  0
   -1.2716    1.2657    0.0000 C   0  0  0  0  0  0  0  0  0  0  0  0
   -0.5571    1.6782    0.0000 O   0  0  0  0  0  0  0  0  0  0  0  0
   -1.9861    1.6782    0.0000 C   0  0  0  0  0  0  0  0  0  0  0  0
   -2.7005    1.2657    0.0000 C   0  0  0  0  0  0  0  0  0  0  0  0
   -2.7005    0.4407    0.0000 C   0  0  0  0  0  0  0  0  0  0  0  0
   -1.9861    0.0282    0.0000 C   0  0  0  0  0  0  0  0  0  0  0  0
    0.8718    1.6782    0.0000 O   0  0  0  0  0  0  0  0  0  0  0  0
   -3.4150    0.0282    0.0000 C   0  0  0  0  0  0  0  0  0  0  0  0
    2.1775   -1.6782    0.0000 C   0  0  0  0  0  0  0  0  0  0  0  0
    1.7650   -0.9638    0.0000 C   0  0  0  0  0  0  0  0  0  0  0  0
    2.1775   -0.2493    0.0000 C   0  0  0  0  0  0  0  0  0  0  0  0
    3.0025   -0.2493    0.0000 C   0  0  0  0  0  0  0  0  0  0  0  0
    3.4150   -0.9638    0.0000 C   0  0  0  0  0  0  0  0  0  0  0  0
    3.0025   -1.6782    0.0000 N   0  0  0  0  0  0  0  0  0  0  0  0
    0.8718    0.0282    0.0000 C   0  0  0  0  0  0  0  0  0  0  0  0
    0.9580   -0.7922    0.0000 N   0  0  0  0  0  0  0  0  0  0  0  0
    1.6255    0.3638    0.0000 N   0  0  0  0  0  0  0  0  0  0  0  0
  1  2  1  0      
  2  3  2  0      
  3  4  1  0      
  4  5  1  0      
  5  6  1  0      
  1  6  1  0      
  7  8  1  0      
  8  9  2  0      
  9 10  1  0      
 10  4  2  0      
  7  5  2  0      
  1 11  2  0      
  9 12  1  0      
 13 14  1  0      
 14 15  2  0      
 15 16  1  0      
 16 17  2  0      
 17 18  1  0      
 13 18  2  0      
 19 20  1  0      
 19 21  2  0      
 20 14  1  0      
 21 15  1  0      
  2 19  1  0      
M  END

>  <RackCode>
HYCPK72335

>  <Cat. No.>
HY-139434

>  <Product Name>
JMJD6-IN-1

>  <ROW>
J

>  <COLUMN>
15

>  <CAS No.>
899548-78-8

>  <MWt>
277.28

>  <Target>
Histone Demethylase

>  <Saltdate>


>  <Smiles>
O=C1C(C(N2)=NC3=C2C=NC=C3)=CC4=CC(C)=CC=C4O1

>  <Solvent>
DMSO Solution

>  <Batch No.>
293830

>  <Quantity>
10mM  * 50uL

>  <Pathway>
Epigenetics

>  <Synonyms>


>  <Formula>
C16H11N3O2

>  <Research_Area>
Cancer

>  <Clinical_Information>
No Development Reported

>  <SUPPLIER>
MedChemExpress

$$$$
Untitled Document
  ChemDraw01051914052D

 25 27  0  0  0  0  0  0  0  0999 V2000
    2.8579   -0.5635    0.0000 O   0  0  0  0  0  0  0  0  0  0  0  0
    2.8579   -1.3885    0.0000 C   0  0  0  0  0  0  0  0  0  0  0  0
    3.5724   -1.8010    0.0000 O   0  0  0  0  0  0  0  0  0  0  0  0
    2.1434   -1.8010    0.0000 C   0  0  0  0  0  0  0  0  0  0  0  0
    1.4289   -1.3885    0.0000 N   0  0  0  0  0  0  0  0  0  0  0  0
    0.7145   -1.8010    0.0000 C   0  0  0  0  0  0  0  0  0  0  0  0
    0.0000   -1.3885    0.0000 C   0  0  0  0  0  0  0  0  0  0  0  0
   -0.7145   -1.8010    0.0000 C   0  0  0  0  0  0  0  0  0  0  0  0
   -0.7145   -2.6260    0.0000 O   0  0  0  0  0  0  0  0  0  0  0  0
   -1.4289   -1.3885    0.0000 C   0  0  0  0  0  0  0  0  0  0  0  0
   -1.4289   -0.5635    0.0000 C   0  0  0  0  0  0  0  0  0  0  0  0
   -0.7145   -0.1510    0.0000 N   0  0  0  0  0  0  0  0  0  0  0  0
   -0.7145    0.6740    0.0000 C   0  0  0  0  0  0  0  0  0  0  0  0
    0.0000    1.0865    0.0000 C   0  0  0  0  0  0  0  0  0  0  0  0
    0.0000    1.9115    0.0000 C   0  0  0  0  0  0  0  0  0  0  0  0
   -0.4125    2.6260    0.0000 C   0  0  0  0  0  0  0  0  0  0  0  0
    0.4125    2.6260    0.0000 C   0  0  0  0  0  0  0  0  0  0  0  0
    0.0000   -0.5635    0.0000 C   0  0  0  0  0  0  0  0  0  0  0  0
    0.7145   -0.1510    0.0000 O   0  0  0  0  0  0  0  0  0  0  0  0
   -2.1434   -0.1510    0.0000 C   0  0  0  0  0  0  0  0  0  0  0  0
   -2.8579   -0.5635    0.0000 C   0  0  0  0  0  0  0  0  0  0  0  0
   -2.8579   -1.3885    0.0000 C   0  0  0  0  0  0  0  0  0  0  0  0
   -3.5724   -1.8010    0.0000 F   0  0  0  0  0  0  0  0  0  0  0  0
   -2.1434   -1.8010    0.0000 C   0  0  0  0  0  0  0  0  0  0  0  0
    0.7145   -2.6260    0.0000 O   0  0  0  0  0  0  0  0  0  0  0  0
  1  2  2  0      
  2  3  1  0      
  2  4  1  0      
  4  5  1  0      
  5  6  1  0      
  6  7  1  0      
  7  8  2  0      
  8  9  1  0      
  8 10  1  0      
 10 11  2  0      
 11 12  1  0      
 12 13  1  0      
 13 14  1  0      
 14 15  1  0      
 15 16  1  0      
 16 17  1  0      
 15 17  1  0      
 12 18  1  0      
  7 18  1  0      
 18 19  2  0      
 11 20  1  0      
 20 21  2  0      
 21 22  1  0      
 22 23  1  0      
 22 24  2  0      
 10 24  1  0      
  6 25  2  0      
M  END

>  <RackCode>
HYCPK72335

>  <Cat. No.>
HY-123422

>  <Product Name>
GSK360A

>  <ROW>
K

>  <COLUMN>
15

>  <CAS No.>
931399-19-8

>  <MWt>
348.33

>  <Target>
HIF/HIF Prolyl-Hydroxylase

>  <Saltdate>


>  <Smiles>
O=C(CNC(C1=C(C2=C(C=CC(F)=C2)N(C1=O)CCC3CC3)O)=O)O

>  <Solvent>
DMSO Solution

>  <Batch No.>
410756

>  <Quantity>
10mM  * 50uL

>  <Pathway>
Metabolic Enzyme/Protease

>  <Synonyms>


>  <Formula>
C17H17FN2O5

>  <Research_Area>
Cardiovascular Disease

>  <Clinical_Information>
No Development Reported

>  <SUPPLIER>
MedChemExpress

$$$$
Untitled Document
  ChemDraw04051713582D

 41 42  0  0  0  0  0  0  0  0999 V2000
    5.7144   -1.0314    0.0000 C   0  0  0  0  0  0  0  0  0  0  0  0
    5.0007   -1.4439    0.0000 N   0  0  0  0  0  0  0  0  0  0  0  0
    5.7144   -0.2063    0.0000 O   0  0  0  0  0  0  0  0  0  0  0  0
    6.4289   -1.4439    0.0000 O   0  0  0  0  0  0  0  0  0  0  0  0
    4.2862   -1.0314    0.0000 C   0  0  0  0  0  0  0  0  0  0  0  0
    3.5718   -1.4439    0.0000 C   0  0  0  0  0  0  0  0  0  0  0  0
    2.8572   -1.0314    0.0000 C   0  0  0  0  0  0  0  0  0  0  0  0
    2.1427   -1.4439    0.0000 C   0  0  0  0  0  0  0  0  0  0  0  0
    1.4290   -1.0314    0.0000 C   0  0  0  0  0  0  0  0  0  0  0  0
    0.7146   -1.4439    0.0000 N   0  0  0  0  0  0  0  0  0  0  0  0
   -0.0000   -1.0314    0.0000 C   0  0  0  0  0  0  0  0  0  0  0  0
   -0.7146   -1.4439    0.0000 C   0  0  0  0  0  0  0  0  0  0  0  0
   -1.4290   -1.0314    0.0000 C   0  0  0  0  0  0  0  0  0  0  0  0
   -2.1427   -1.4439    0.0000 C   0  0  0  0  0  0  0  0  0  0  0  0
   -2.8572   -1.0314    0.0000 C   0  0  0  0  0  0  0  0  0  0  0  0
   -3.5718   -1.4439    0.0000 C   0  0  0  0  0  0  0  0  0  0  0  0
   -4.2862   -1.0314    0.0000 C   0  0  0  0  0  0  0  0  0  0  0  0
   -5.0007   -1.4439    0.0000 C   0  0  0  0  0  0  0  0  0  0  0  0
   -5.7144   -1.0314    0.0000 C   0  0  0  0  0  0  0  0  0  0  0  0
   -6.4289   -1.4439    0.0000 C   0  0  0  0  0  0  0  0  0  0  0  0
   -7.1434   -1.0314    0.0000 C   0  0  0  0  0  0  0  0  0  0  0  0
   -7.8580   -1.4439    0.0000 C   0  0  0  0  0  0  0  0  0  0  0  0
   -8.5716   -1.0314    0.0000 C   0  0  0  0  0  0  0  0  0  0  0  0
   -9.2861   -1.4439    0.0000 C   0  0  0  0  0  0  0  0  0  0  0  0
   -0.0000   -0.2063    0.0000 S   0  0  0  0  0  0  0  0  0  0  0  0
    4.2862   -0.2063    0.0000 C   0  0  0  0  0  0  0  0  0  0  0  0
    3.5718    0.2062    0.0000 O   0  0  0  0  0  0  0  0  0  0  0  0
    5.0007    0.2062    0.0000 N   0  0  0  0  0  0  0  0  0  0  0  0
    5.0007    1.0314    0.0000 C   0  0  0  0  0  0  0  0  0  0  0  0
    4.2862    1.4439    0.0000 C   0  0  0  0  0  0  0  0  0  0  0  0
    4.2862    2.2681    0.0000 C   0  0  0  0  0  0  0  0  0  0  0  0
    5.0007    2.6806    0.0000 C   0  0  0  0  0  0  0  0  0  0  0  0
    5.7144    2.2681    0.0000 C   0  0  0  0  0  0  0  0  0  0  0  0
    5.7144    1.4439    0.0000 C   0  0  0  0  0  0  0  0  0  0  0  0
    7.1434   -1.0314    0.0000 C   0  0  0  0  0  0  0  0  0  0  0  0
    7.8580   -1.4439    0.0000 C   0  0  0  0  0  0  0  0  0  0  0  0
    8.5716   -1.0314    0.0000 C   0  0  0  0  0  0  0  0  0  0  0  0
    9.2861   -1.4439    0.0000 C   0  0  0  0  0  0  0  0  0  0  0  0
    9.2861   -2.2681    0.0000 C   0  0  0  0  0  0  0  0  0  0  0  0
    8.5716   -2.6806    0.0000 C   0  0  0  0  0  0  0  0  0  0  0  0
    7.8580   -2.2681    0.0000 C   0  0  0  0  0  0  0  0  0  0  0  0
  1  2  1  0      
  1  3  2  0      
  1  4  1  0      
  5  6  1  0      
  6  7  1  0      
  7  8  1  0      
  8  9  1  0      
 11 12  1  0      
 12 13  1  0      
 13 14  1  0      
 14 15  1  0      
 15 16  1  0      
 16 17  1  0      
 17 18  1  0      
 18 19  1  0      
 19 20  1  0      
 20 21  1  0      
 21 22  1  0      
 22 23  1  0      
 23 24  1  0      
 11 25  2  0      
 10 11  1  0      
  9 10  1  0      
 26 27  2  0      
 29 30  1  0      
 30 31  2  0      
 31 32  1  0      
 32 33  2  0      
 33 34  1  0      
 29 34  2  0      
 28 29  1  0      
 26 28  1  0      
  5 26  1  1      
  2  5  1  0      
 36 37  1  0      
 37 38  2  0      
 38 39  1  0      
 39 40  2  0      
 40 41  1  0      
 36 41  2  0      
 35 36  1  0      
  4 35  1  0      
M  END

>  <RackCode>
HYCPK72335

>  <Cat. No.>
HY-101278

>  <Product Name>
Thiomyristoyl

>  <ROW>
L

>  <COLUMN>
15

>  <CAS No.>
1429749-41-6

>  <MWt>
581.85

>  <Target>
Sirtuin

>  <Saltdate>
Free Base

>  <Smiles>
O=C(OCC1=CC=CC=C1)N[C@H](C(NC2=CC=CC=C2)=O)CCCCNC(CCCCCCCCCCCCC)=S

>  <Solvent>
DMSO Solution

>  <Batch No.>
23827

>  <Quantity>
10mM  * 50uL

>  <Pathway>
Cell Cycle/DNA Damage; Epigenetics

>  <Synonyms>


>  <Formula>
C34H51N3O3S

>  <Research_Area>
Cancer

>  <Clinical_Information>
No Development Reported

>  <SUPPLIER>
MedChemExpress

$$$$
Untitled Document
  ChemDraw08221910582D

 32 35  0  0  0  0  0  0  0  0999 V2000
    0.5647   -1.0194    0.0000 C   0  0  0  0  0  0  0  0  0  0  0  0
    0.0798   -1.6868    0.0000 N   0  0  0  0  0  0  0  0  0  0  0  0
   -0.7048   -1.4319    0.0000 C   0  0  0  0  0  0  0  0  0  0  0  0
   -0.7048   -0.6069    0.0000 C   0  0  0  0  0  0  0  0  0  0  0  0
    0.0798   -0.3519    0.0000 N   0  0  0  0  0  0  0  0  0  0  0  0
   -1.4193   -1.8444    0.0000 C   0  0  0  0  0  0  0  0  0  0  0  0
   -2.1338   -1.4319    0.0000 C   0  0  0  0  0  0  0  0  0  0  0  0
   -2.1338   -0.6069    0.0000 C   0  0  0  0  0  0  0  0  0  0  0  0
   -1.4193   -0.1944    0.0000 C   0  0  0  0  0  0  0  0  0  0  0  0
   -2.8483   -1.8444    0.0000 C   0  0  0  0  0  0  0  0  0  0  0  0
   -2.8483   -2.6694    0.0000 O   0  0  0  0  0  0  0  0  0  0  0  0
   -3.5627   -1.4319    0.0000 N   0  0  0  0  0  0  0  0  0  0  0  0
   -4.2772   -1.8444    0.0000 C   0  0  0  0  0  0  0  0  0  0  0  0
    0.3347    0.4327    0.0000 C   0  0  0  0  0  0  0  0  0  0  0  0
   -1.3734    1.7132    0.0000 N   0  0  0  0  0  0  0  0  0  0  0  0
   -1.0378    0.9595    0.0000 N   0  0  0  0  0  0  0  0  0  0  0  0
   -0.2173    1.0458    0.0000 C   0  0  0  0  0  0  0  0  0  0  0  0
   -0.0458    1.8528    0.0000 C   0  0  0  0  0  0  0  0  0  0  0  0
   -0.7603    2.2653    0.0000 C   0  0  0  0  0  0  0  0  0  0  0  0
   -2.1803    1.8847    0.0000 C   0  0  0  0  0  0  0  0  0  0  0  0
   -2.4353    2.6694    0.0000 C   0  0  0  0  0  0  0  0  0  0  0  0
    1.8022   -1.7338    0.0000 C   0  0  0  0  0  0  0  0  0  0  0  0
    1.3897   -1.0194    0.0000 C   0  0  0  0  0  0  0  0  0  0  0  0
    1.8022   -0.3049    0.0000 C   0  0  0  0  0  0  0  0  0  0  0  0
    2.6272   -0.3049    0.0000 C   0  0  0  0  0  0  0  0  0  0  0  0
    3.0397   -1.0194    0.0000 C   0  0  0  0  0  0  0  0  0  0  0  0
    2.6272   -1.7338    0.0000 N   0  0  0  0  0  0  0  0  0  0  0  0
    3.8647   -1.0194    0.0000 N   0  0  0  0  0  0  0  0  0  0  0  0
    4.2772   -0.3049    0.0000 C   0  0  0  0  0  0  0  0  0  0  0  0
    3.8647    0.4096    0.0000 C   0  0  0  0  0  0  0  0  0  0  0  0
    4.2772   -1.7338    0.0000 C   0  0  0  0  0  0  0  0  0  0  0  0
    3.8647   -2.4483    0.0000 C   0  0  0  0  0  0  0  0  0  0  0  0
  1  2  2  0      
  2  3  1  0      
  3  4  1  0      
  4  5  1  0      
  1  5  1  0      
  6  7  1  0      
  7  8  2  0      
  8  9  1  0      
  9  4  2  0      
  6  3  2  0      
 10 11  2  0      
 10 12  1  0      
  7 10  1  0      
 12 13  1  0      
 15 16  1  0      
 16 17  2  0      
 17 18  1  0      
 18 19  2  0      
 15 19  1  0      
 20 21  1  0      
 15 20  1  0      
 14 17  1  0      
  5 14  1  0      
 22 23  1  0      
 23 24  2  0      
 24 25  1  0      
 25 26  2  0      
 26 27  1  0      
 22 27  2  0      
 29 30  1  0      
 28 29  1  0      
 31 32  1  0      
 28 31  1  0      
 26 28  1  0      
  1 23  1  0      
M  END

>  <RackCode>
HYCPK72335

>  <Cat. No.>
HY-128876

>  <Product Name>
CBP/p300-IN-3

>  <ROW>
M

>  <COLUMN>
15

>  <CAS No.>
2299226-01-8

>  <MWt>
431.53

>  <Target>
Histone Acetyltransferase

>  <Saltdate>


>  <Smiles>
O=C(C1=CC=C2C(N=C(C3=CC=C(N(CC)CC)N=C3)N2CC4=NN(CC)C=C4)=C1)NC

>  <Solvent>
DMSO Solution

>  <Batch No.>
64598

>  <Quantity>
10mM  * 50uL

>  <Pathway>
Epigenetics

>  <Synonyms>


>  <Formula>
C24H29N7O

>  <Research_Area>
Cancer

>  <Clinical_Information>
No Development Reported

>  <SUPPLIER>
MedChemExpress

$$$$
Untitled Document
  ChemDraw10101816162D

 29 33  0  0  0  0  0  0  0  0999 V2000
   -0.7046   -2.5683    0.0000 N   0  0  0  0  0  0  0  0  0  0  0  0
   -1.1895   -1.9009    0.0000 C   0  0  0  0  0  0  0  0  0  0  0  0
   -0.7046   -1.2335    0.0000 C   0  0  0  0  0  0  0  0  0  0  0  0
    0.0801   -1.4884    0.0000 C   0  0  0  0  0  0  0  0  0  0  0  0
    0.0801   -2.3134    0.0000 C   0  0  0  0  0  0  0  0  0  0  0  0
   -2.0145   -1.9009    0.0000 O   0  0  0  0  0  0  0  0  0  0  0  0
    0.7475   -2.7983    0.0000 O   0  0  0  0  0  0  0  0  0  0  0  0
    1.5321    0.0765    0.0000 N   0  0  0  0  0  0  0  0  0  0  0  0
    0.7475   -0.1785    0.0000 C   0  0  0  0  0  0  0  0  0  0  0  0
    0.7475   -1.0035    0.0000 C   0  0  0  0  0  0  0  0  0  0  0  0
    1.5321   -1.2584    0.0000 C   0  0  0  0  0  0  0  0  0  0  0  0
    1.8677   -2.0121    0.0000 C   0  0  0  0  0  0  0  0  0  0  0  0
    2.6882   -2.0983    0.0000 C   0  0  0  0  0  0  0  0  0  0  0  0
    3.1731   -1.4309    0.0000 C   0  0  0  0  0  0  0  0  0  0  0  0
    2.8375   -0.6772    0.0000 C   0  0  0  0  0  0  0  0  0  0  0  0
    2.0170   -0.5910    0.0000 C   0  0  0  0  0  0  0  0  0  0  0  0
   -0.9595    0.8860    0.0000 N   0  0  0  0  0  0  0  0  0  0  0  0
   -0.4746    0.2186    0.0000 C   0  0  0  0  0  0  0  0  0  0  0  0
   -0.9595   -0.4488    0.0000 C   0  0  0  0  0  0  0  0  0  0  0  0
   -1.7441   -0.1939    0.0000 C   0  0  0  0  0  0  0  0  0  0  0  0
   -2.4586   -0.6064    0.0000 C   0  0  0  0  0  0  0  0  0  0  0  0
   -3.1731   -0.1939    0.0000 C   0  0  0  0  0  0  0  0  0  0  0  0
   -3.1731    0.6311    0.0000 C   0  0  0  0  0  0  0  0  0  0  0  0
   -2.4586    1.0436    0.0000 C   0  0  0  0  0  0  0  0  0  0  0  0
   -1.7441    0.6311    0.0000 C   0  0  0  0  0  0  0  0  0  0  0  0
   -0.7046    1.6707    0.0000 C   0  0  0  0  0  0  0  0  0  0  0  0
    0.1024    1.8422    0.0000 C   0  0  0  0  0  0  0  0  0  0  0  0
    0.3573    2.6268    0.0000 C   0  0  0  0  0  0  0  0  0  0  0  0
    1.1643    2.7983    0.0000 N   0  0  0  0  0  0  0  0  0  0  0  0
  1  2  1  0      
  2  3  1  0      
  3  4  2  0      
  4  5  1  0      
  1  5  1  0      
  2  6  2  0      
  5  7  2  0      
  8  9  1  0      
  9 10  2  0      
 10 11  1  0      
 11 12  1  0      
 12 13  2  0      
 13 14  1  0      
 14 15  2  0      
 15 16  1  0      
  8 16  1  0      
 11 16  2  0      
  4 10  1  0      
 17 18  1  0      
 18 19  2  0      
 19 20  1  0      
 20 21  1  0      
 21 22  2  0      
 22 23  1  0      
 23 24  2  0      
 24 25  1  0      
 17 25  1  0      
 20 25  2  0      
 26 27  1  0      
 27 28  1  0      
 28 29  1  0      
 17 26  1  0      
  3 19  1  0      
M  END

>  <RackCode>
HYCPK72335

>  <Cat. No.>
HY-117393

>  <Product Name>
Bisindolylmaleimide III

>  <ROW>
N

>  <COLUMN>
15

>  <CAS No.>
137592-43-9

>  <MWt>
384.43

>  <Target>
PKC

>  <Saltdate>


>  <Smiles>
O=C(C(C1=CN(CCCN)C2=C1C=CC=C2)=C3C4=CNC5=C4C=CC=C5)NC3=O

>  <Solvent>
DMSO Solution

>  <Batch No.>
292564

>  <Quantity>
10mM  * 50uL

>  <Pathway>
Epigenetics; TGF-beta/Smad

>  <Synonyms>


>  <Formula>
C23H20N4O2

>  <Research_Area>
Cancer

>  <Clinical_Information>
No Development Reported

>  <SUPPLIER>
MedChemExpress

$$$$
Untitled Document
  ChemDraw08231816532D

 11 11  0  0  0  0  0  0  0  0999 V2000
   -0.3572    0.4125    0.0000 C   0  0  0  0  0  0  0  0  0  0  0  0
    0.3572   -0.0000    0.0000 C   0  0  0  0  0  0  0  0  0  0  0  0
    0.3572   -0.8250    0.0000 C   0  0  0  0  0  0  0  0  0  0  0  0
   -0.3572   -1.2375    0.0000 C   0  0  0  0  0  0  0  0  0  0  0  0
   -1.0717   -0.8250    0.0000 C   0  0  0  0  0  0  0  0  0  0  0  0
   -1.0717   -0.0000    0.0000 N   0  0  0  0  0  0  0  0  0  0  0  0
    1.0717    0.4125    0.0000 C   0  0  0  0  0  0  0  0  0  0  0  0
    1.0717    1.2375    0.0000 O   0  0  0  0  0  0  0  0  0  0  0  0
    1.7862   -0.0000    0.0000 N   0  0  0  0  0  0  0  0  0  0  0  0
   -1.7862   -1.2375    0.0000 O   0  0  0  0  0  0  0  0  0  0  0  0
   -1.7862    0.4125    0.0000 C   0  0  0  0  0  0  0  0  0  0  0  0
  1  2  2  0      
  2  3  1  0      
  3  4  2  0      
  4  5  1  0      
  5  6  1  0      
  1  6  1  0      
  7  8  2  0      
  7  9  1  0      
  2  7  1  0      
  5 10  2  0      
  6 11  1  0      
M  END

>  <RackCode>
HYCPK72335

>  <Cat. No.>
HY-113432

>  <Product Name>
Nudifloramide

>  <ROW>
O

>  <COLUMN>
15

>  <CAS No.>
701-44-0

>  <MWt>
152.15

>  <Target>
Endogenous Metabolite; PARP

>  <Saltdate>
Free Base

>  <Smiles>
O=C(C(C=C1)=CN(C)C1=O)N

>  <Solvent>
DMSO Solution

>  <Batch No.>
462730

>  <Quantity>
10mM  * 50uL

>  <Pathway>
Cell Cycle/DNA Damage; Epigenetics; Metabolic Enzyme/Protease

>  <Synonyms>
2PY

>  <Formula>
C7H8N2O2

>  <Research_Area>
Metabolic Disease

>  <Clinical_Information>
No Development Reported

>  <SUPPLIER>
MedChemExpress

$$$$
Untitled Document
  ChemDraw05262317102D

 25 26  0  0  0  0  0  0  0  0999 V2000
    2.5005    2.4749    0.0000 O   0  0  0  0  0  0  0  0  0  0  0  0
    2.5005    1.6500    0.0000 C   0  0  0  0  0  0  0  0  0  0  0  0
    1.7861    1.2375    0.0000 C   0  0  0  0  0  0  0  0  0  0  0  0
    1.0717    1.6500    0.0000 C   0  0  0  0  0  0  0  0  0  0  0  0
    0.3572    1.2375    0.0000 C   0  0  0  0  0  0  0  0  0  0  0  0
    0.3572    0.4125    0.0000 C   0  0  0  0  0  0  0  0  0  0  0  0
   -0.3572    0.0000    0.0000 C   0  0  0  0  0  0  0  0  0  0  0  0
   -1.0717    0.4125    0.0000 N   0  0  0  0  0  0  0  0  0  0  0  0
   -1.7861    0.0000    0.0000 C   0  0  0  0  0  0  0  0  0  0  0  0
   -1.7861   -0.8250    0.0000 C   0  0  0  0  0  0  0  0  0  0  0  0
   -1.0717   -1.2375    0.0000 C   0  0  0  0  0  0  0  0  0  0  0  0
   -1.0717   -2.0624    0.0000 C   0  0  0  0  0  0  0  0  0  0  0  0
   -1.7861   -2.4749    0.0000 C   0  0  0  0  0  0  0  0  0  0  0  0
   -2.5005   -2.0624    0.0000 C   0  0  0  0  0  0  0  0  0  0  0  0
   -2.5005   -1.2375    0.0000 C   0  0  0  0  0  0  0  0  0  0  0  0
   -3.2150   -0.8250    0.0000 C   0  0  0  0  0  0  0  0  0  0  0  0
   -3.9295   -1.2375    0.0000 C   0  0  0  0  0  0  0  0  0  0  0  0
   -3.9295   -2.0624    0.0000 C   0  0  0  0  0  0  0  0  0  0  0  0
   -3.2150   -2.4749    0.0000 C   0  0  0  0  0  0  0  0  0  0  0  0
   -1.0717    1.2375    0.0000 C   0  0  0  0  0  0  0  0  0  0  0  0
   -0.3572    1.6500    0.0000 C   0  0  0  0  0  0  0  0  0  0  0  0
    3.2150    1.2375    0.0000 N   0  0  0  0  0  0  0  0  0  0  0  0
    3.9295    1.6500    0.0000 O   0  0  0  0  0  0  0  0  0  0  0  0
    1.0206   -1.3639    0.0000 H   0  0  0  0  0  0  0  0  0  0  0  0
    1.8455   -1.3639    0.0000 Cl  0  0  0  0  0  0  0  0  0  0  0  0
  1  2  2  0      
  2  3  1  0      
  3  4  2  0      
  4  5  1  0      
  5  6  1  0      
  6  7  1  0      
  7  8  1  0      
  8  9  1  0      
  9 10  1  0      
 10 11  2  0      
 11 12  1  0      
 12 13  2  0      
 13 14  1  0      
 14 15  2  0      
 10 15  1  0      
 15 16  1  0      
 16 17  2  0      
 17 18  1  0      
 18 19  2  0      
 14 19  1  0      
  8 20  1  0      
 20 21  1  0      
  5 21  1  0      
  2 22  1  0      
 22 23  1  0      
 24 25  1  0      
M  END

>  <RackCode>
HYCPK72335

>  <Cat. No.>
HY-144782A

>  <Product Name>
HDAC10-IN-2 (hydrochloride)

>  <ROW>
P

>  <COLUMN>
15

>  <CAS No.>


>  <MWt>
346.85

>  <Target>
Autophagy; HDAC

>  <Saltdate>
Hydrochloride

>  <Smiles>
O=C(NO)/C=C/C1CCN(CC1)CC2=CC=CC3=C2C=CC=C3.[H]Cl

>  <Solvent>
DMSO Solution

>  <Batch No.>
280007

>  <Quantity>
10mM  * 50uL

>  <Pathway>
Autophagy; Cell Cycle/DNA Damage; Epigenetics

>  <Synonyms>


>  <Formula>
C19H23ClN2O2

>  <Research_Area>
Cancer

>  <Clinical_Information>
No Development Reported

>  <SUPPLIER>
MedChemExpress

$$$$
Untitled Document
  ChemDraw07271712472D

 27 29  0  0  0  0  0  0  0  0999 V2000
    0.0000   -0.6187    0.0000 C   0  0  0  0  0  0  0  0  0  0  0  0
    0.7145   -0.2062    0.0000 C   0  0  0  0  0  0  0  0  0  0  0  0
    0.7145    0.6188    0.0000 C   0  0  0  0  0  0  0  0  0  0  0  0
    1.4289    1.0313    0.0000 C   0  0  0  0  0  0  0  0  0  0  0  0
    2.1434    0.6188    0.0000 C   0  0  0  0  0  0  0  0  0  0  0  0
    2.1434   -0.2062    0.0000 C   0  0  0  0  0  0  0  0  0  0  0  0
    1.4289   -0.6187    0.0000 C   0  0  0  0  0  0  0  0  0  0  0  0
    0.0000   -1.4437    0.0000 O   0  0  0  0  0  0  0  0  0  0  0  0
   -0.7145   -0.2062    0.0000 N   0  0  0  0  0  0  0  0  0  0  0  0
   -1.4289   -0.6187    0.0000 N   0  0  0  0  0  0  0  0  0  0  0  0
   -2.1434   -0.2062    0.0000 S   0  0  0  0  0  0  0  0  0  0  0  0
   -1.7309    0.5082    0.0000 O   0  0  0  0  0  0  0  0  0  0  0  0
   -2.5559   -0.9207    0.0000 O   0  0  0  0  0  0  0  0  0  0  0  0
   -2.8579    0.2062    0.0000 C   0  0  0  0  0  0  0  0  0  0  0  0
   -2.8579    1.0313    0.0000 C   0  0  0  0  0  0  0  0  0  0  0  0
   -3.5724    1.4438    0.0000 C   0  0  0  0  0  0  0  0  0  0  0  0
   -4.2868    1.0313    0.0000 C   0  0  0  0  0  0  0  0  0  0  0  0
   -4.2868    0.2062    0.0000 C   0  0  0  0  0  0  0  0  0  0  0  0
   -3.5724   -0.2062    0.0000 C   0  0  0  0  0  0  0  0  0  0  0  0
   -2.1434    1.4438    0.0000 F   0  0  0  0  0  0  0  0  0  0  0  0
    2.8579   -0.6187    0.0000 C   0  0  0  0  0  0  0  0  0  0  0  0
    3.5724   -0.2062    0.0000 C   0  0  0  0  0  0  0  0  0  0  0  0
    4.2868   -0.6187    0.0000 C   0  0  0  0  0  0  0  0  0  0  0  0
    4.2868   -1.4437    0.0000 C   0  0  0  0  0  0  0  0  0  0  0  0
    3.5724   -1.8563    0.0000 C   0  0  0  0  0  0  0  0  0  0  0  0
    2.8579   -1.4437    0.0000 N   0  0  0  0  0  0  0  0  0  0  0  0
    1.4289    1.8563    0.0000 F   0  0  0  0  0  0  0  0  0  0  0  0
  1  2  1  0      
  2  3  1  0      
  3  4  2  0      
  4  5  1  0      
  5  6  2  0      
  6  7  1  0      
  2  7  2  0      
  1  8  2  0      
  9 10  1  0      
 11 12  2  0      
 11 13  2  0      
 14 15  1  0      
 15 16  2  0      
 16 17  1  0      
 17 18  2  0      
 18 19  1  0      
 14 19  2  0      
 15 20  1  0      
 11 14  1  0      
 10 11  1  0      
  1  9  1  0      
 21 22  1  0      
 22 23  2  0      
 23 24  1  0      
 24 25  2  0      
 25 26  1  0      
 21 26  2  0      
  6 21  1  0      
  4 27  1  0      
M  END

>  <RackCode>
HYCPK72335

>  <Cat. No.>
HY-102058

>  <Product Name>
WM-1119

>  <ROW>
A

>  <COLUMN>
16

>  <CAS No.>
2055397-28-7

>  <MWt>
389.38

>  <Target>
Histone Acetyltransferase

>  <Saltdate>
Free Base

>  <Smiles>
O=C(NNS(=O)(C1=CC=CC=C1F)=O)C2=CC(C3=NC=CC=C3)=CC(F)=C2

>  <Solvent>
DMSO Solution

>  <Batch No.>
115862

>  <Quantity>
10mM  * 50uL

>  <Pathway>
Epigenetics

>  <Synonyms>


>  <Formula>
C18H13F2N3O3S

>  <Research_Area>
Cancer

>  <Clinical_Information>
No Development Reported

>  <SUPPLIER>
MedChemExpress

$$$$
Untitled Document
  ChemDraw12022211002D

 40 44  0  0  0  0  0  0  0  0999 V2000
    2.6491   -1.8563    0.0000 O   0  0  0  0  0  0  0  0  0  0  0  0
    1.9346   -1.4437    0.0000 C   0  0  0  0  0  0  0  0  0  0  0  0
    1.2201   -1.8563    0.0000 N   0  0  0  0  0  0  0  0  0  0  0  0
    1.2201   -2.6812    0.0000 C   0  0  0  0  0  0  0  0  0  0  0  0
    0.5057   -3.0938    0.0000 C   0  0  0  0  0  0  0  0  0  0  0  0
    0.5057   -3.9187    0.0000 C   0  0  0  0  0  0  0  0  0  0  0  0
    1.2201   -4.3312    0.0000 O   0  0  0  0  0  0  0  0  0  0  0  0
   -0.2088   -4.3312    0.0000 N   0  0  0  0  0  0  0  0  0  0  0  0
   -0.9233   -3.9187    0.0000 C   0  0  0  0  0  0  0  0  0  0  0  0
   -0.9233   -3.0938    0.0000 C   0  0  0  0  0  0  0  0  0  0  0  0
   -0.2088   -2.6812    0.0000 C   0  0  0  0  0  0  0  0  0  0  0  0
   -0.2088   -1.8563    0.0000 C   0  0  0  0  0  0  0  0  0  0  0  0
   -1.6377   -4.3312    0.0000 C   0  0  0  0  0  0  0  0  0  0  0  0
    1.9346   -0.6187    0.0000 C   0  0  0  0  0  0  0  0  0  0  0  0
    1.2201   -0.2062    0.0000 C   0  0  0  0  0  0  0  0  0  0  0  0
    1.2201    0.6187    0.0000 C   0  0  0  0  0  0  0  0  0  0  0  0
    1.9346    1.0313    0.0000 C   0  0  0  0  0  0  0  0  0  0  0  0
    2.6491    0.6187    0.0000 C   0  0  0  0  0  0  0  0  0  0  0  0
    2.6491   -0.2062    0.0000 C   0  0  0  0  0  0  0  0  0  0  0  0
    3.4337   -0.4612    0.0000 C   0  0  0  0  0  0  0  0  0  0  0  0
    3.9186    0.2062    0.0000 N   0  0  0  0  0  0  0  0  0  0  0  0
    3.4337    0.8737    0.0000 N   0  0  0  0  0  0  0  0  0  0  0  0
    3.6886    1.6583    0.0000 C   0  0  0  0  0  0  0  0  0  0  0  0
    3.1366    2.2714    0.0000 C   0  0  0  0  0  0  0  0  0  0  0  0
    4.4956    1.8298    0.0000 C   0  0  0  0  0  0  0  0  0  0  0  0
    0.5057    1.0313    0.0000 C   0  0  0  0  0  0  0  0  0  0  0  0
   -0.2088    0.6187    0.0000 C   0  0  0  0  0  0  0  0  0  0  0  0
   -0.9233    1.0313    0.0000 N   0  0  0  0  0  0  0  0  0  0  0  0
   -0.9233    1.8563    0.0000 C   0  0  0  0  0  0  0  0  0  0  0  0
   -0.2088    2.2687    0.0000 C   0  0  0  0  0  0  0  0  0  0  0  0
    0.5057    1.8563    0.0000 C   0  0  0  0  0  0  0  0  0  0  0  0
   -1.6377    2.2687    0.0000 N   0  0  0  0  0  0  0  0  0  0  0  0
   -2.3522    1.8563    0.0000 C   0  0  0  0  0  0  0  0  0  0  0  0
   -3.0667    2.2687    0.0000 C   0  0  0  0  0  0  0  0  0  0  0  0
   -3.0667    3.0938    0.0000 N   0  0  0  0  0  0  0  0  0  0  0  0
   -2.3522    3.5062    0.0000 C   0  0  0  0  0  0  0  0  0  0  0  0
   -1.6377    3.0938    0.0000 C   0  0  0  0  0  0  0  0  0  0  0  0
   -3.7811    3.5062    0.0000 C   0  0  0  0  0  0  0  0  0  0  0  0
   -3.7811    4.3312    0.0000 C   0  0  0  0  0  0  0  0  0  0  0  0
   -4.4956    3.0938    0.0000 C   0  0  0  0  0  0  0  0  0  0  0  0
  1  2  2  0      
  2  3  1  0      
  3  4  1  0      
  4  5  1  0      
  5  6  1  0      
  6  7  2  0      
  6  8  1  0      
  8  9  1  0      
  9 10  2  0      
 10 11  1  0      
  5 11  2  0      
 11 12  1  0      
  9 13  1  0      
  2 14  1  0      
 14 15  2  0      
 15 16  1  0      
 16 17  2  0      
 17 18  1  0      
 18 19  2  0      
 14 19  1  0      
 19 20  1  0      
 20 21  2  0      
 21 22  1  0      
 18 22  1  0      
 22 23  1  0      
 23 24  1  0      
 23 25  1  0      
 16 26  1  0      
 26 27  1  0      
 27 28  2  0      
 28 29  1  0      
 29 30  2  0      
 30 31  1  0      
 26 31  2  0      
 29 32  1  0      
 32 33  1  0      
 33 34  1  0      
 34 35  1  0      
 35 36  1  0      
 36 37  1  0      
 32 37  1  0      
 35 38  1  0      
 38 39  1  0      
 38 40  1  0      
M  END

>  <RackCode>
HYCPK72335

>  <Cat. No.>
HY-148458

>  <Product Name>
EZH2-IN-14

>  <ROW>
B

>  <COLUMN>
16

>  <CAS No.>
1979157-17-9

>  <MWt>
541.69

>  <Target>
Histone Methyltransferase

>  <Saltdate>


>  <Smiles>
O=C(C1=CC(C2=CC=C(N3CCN(C(C)C)CC3)N=C2)=CC4=C1C=NN4C(C)C)NCC5=C(C)C=C(C)NC5=O

>  <Solvent>
DMSO Solution

>  <Batch No.>
365835

>  <Quantity>
10mM  * 50uL

>  <Pathway>
Epigenetics

>  <Synonyms>


>  <Formula>
C31H39N7O2

>  <Research_Area>
Cancer

>  <Clinical_Information>
No Development Reported

>  <SUPPLIER>
MedChemExpress

$$$$
Untitled Document
  ChemDraw01122209542D

 35 38  0  0  0  0  0  0  0  0999 V2000
    2.9194   -1.2780    0.0000 S   0  0  0  0  0  0  0  0  0  0  0  0
    3.3319   -1.9923    0.0000 O   0  0  0  0  0  0  0  0  0  0  0  0
    2.5069   -0.5635    0.0000 O   0  0  0  0  0  0  0  0  0  0  0  0
    3.6339   -0.8655    0.0000 N   0  0  0  0  0  0  0  0  0  0  0  0
    3.7201   -0.0450    0.0000 C   0  0  0  0  0  0  0  0  0  0  0  0
    3.1070    0.5070    0.0000 C   0  0  0  0  0  0  0  0  0  0  0  0
    3.2785    1.3140    0.0000 N   0  0  0  0  0  0  0  0  0  0  0  0
    4.0632    1.5690    0.0000 C   0  0  0  0  0  0  0  0  0  0  0  0
    4.2347    2.3758    0.0000 C   0  0  0  0  0  0  0  0  0  0  0  0
    3.6216    2.9279    0.0000 O   0  0  0  0  0  0  0  0  0  0  0  0
    2.8370    2.6729    0.0000 C   0  0  0  0  0  0  0  0  0  0  0  0
    2.6654    1.8661    0.0000 C   0  0  0  0  0  0  0  0  0  0  0  0
    4.5271    0.1265    0.0000 C   0  0  0  0  0  0  0  0  0  0  0  0
    4.9396   -0.5879    0.0000 C   0  0  0  0  0  0  0  0  0  0  0  0
    4.3875   -1.2010    0.0000 C   0  0  0  0  0  0  0  0  0  0  0  0
    2.2049   -1.6905    0.0000 C   0  0  0  0  0  0  0  0  0  0  0  0
    2.2049   -2.5154    0.0000 C   0  0  0  0  0  0  0  0  0  0  0  0
    1.4906   -2.9279    0.0000 C   0  0  0  0  0  0  0  0  0  0  0  0
    0.7761   -2.5154    0.0000 C   0  0  0  0  0  0  0  0  0  0  0  0
    0.0616   -2.9279    0.0000 N   0  0  0  0  0  0  0  0  0  0  0  0
   -0.6529   -2.5154    0.0000 C   0  0  0  0  0  0  0  0  0  0  0  0
   -1.3673   -2.9279    0.0000 N   0  0  0  0  0  0  0  0  0  0  0  0
   -2.0817   -2.5154    0.0000 C   0  0  0  0  0  0  0  0  0  0  0  0
   -2.7962   -2.9279    0.0000 C   0  0  0  0  0  0  0  0  0  0  0  0
   -3.5106   -2.5154    0.0000 C   0  0  0  0  0  0  0  0  0  0  0  0
   -3.5106   -1.6905    0.0000 C   0  0  0  0  0  0  0  0  0  0  0  0
   -4.2251   -1.2780    0.0000 C   0  0  0  0  0  0  0  0  0  0  0  0
   -4.2251   -0.4530    0.0000 F   0  0  0  0  0  0  0  0  0  0  0  0
   -4.9396   -0.8655    0.0000 F   0  0  0  0  0  0  0  0  0  0  0  0
   -4.9396   -1.6905    0.0000 F   0  0  0  0  0  0  0  0  0  0  0  0
   -2.7962   -1.2780    0.0000 C   0  0  0  0  0  0  0  0  0  0  0  0
   -2.0817   -1.6905    0.0000 C   0  0  0  0  0  0  0  0  0  0  0  0
   -0.6529   -1.6905    0.0000 O   0  0  0  0  0  0  0  0  0  0  0  0
    0.7761   -1.6905    0.0000 C   0  0  0  0  0  0  0  0  0  0  0  0
    1.4906   -1.2780    0.0000 C   0  0  0  0  0  0  0  0  0  0  0  0
  1  2  2  0      
  1  3  2  0      
  1  4  1  0      
  4  5  1  0      
  5  6  1  6      
  6  7  1  0      
  7  8  1  0      
  8  9  1  0      
  9 10  1  0      
 10 11  1  0      
 11 12  1  0      
  7 12  1  0      
  5 13  1  0      
 13 14  1  0      
 14 15  1  0      
  4 15  1  0      
  1 16  1  0      
 16 17  2  0      
 17 18  1  0      
 18 19  2  0      
 19 20  1  0      
 20 21  1  0      
 21 22  1  0      
 22 23  1  0      
 23 24  2  0      
 24 25  1  0      
 25 26  2  0      
 26 27  1  0      
 27 28  1  0      
 27 29  1  0      
 27 30  1  0      
 26 31  1  0      
 31 32  2  0      
 23 32  1  0      
 21 33  2  0      
 19 34  1  0      
 34 35  2  0      
 16 35  1  0      
M  END

>  <RackCode>
HYCPK72335

>  <Cat. No.>
HY-145310

>  <Product Name>
ZL0590

>  <ROW>
C

>  <COLUMN>
16

>  <CAS No.>
2230496-99-6

>  <MWt>
512.55

>  <Target>
Epigenetic Reader Domain

>  <Saltdate>


>  <Smiles>
O=S(N1[C@@H](CCC1)CN2CCOCC2)(C3=CC=C(C=C3)NC(NC4=CC=C(C=C4)C(F)(F)F)=O)=O

>  <Solvent>
DMSO Solution

>  <Batch No.>
160340

>  <Quantity>
10mM  * 50uL

>  <Pathway>
Epigenetics

>  <Synonyms>


>  <Formula>
C23H27F3N4O4S

>  <Research_Area>
Inflammation/Immunology

>  <Clinical_Information>
No Development Reported

>  <SUPPLIER>
MedChemExpress

$$$$
Untitled Document
  ChemDraw06252311122D

 27 29  0  0  0  0  0  0  0  0999 V2000
    3.4105   -0.2879    0.0000 Cl  0  0  0  0  0  0  0  0  0  0  0  0
    1.5735    2.0624    0.0000 N   0  0  0  0  0  0  0  0  0  0  0  0
    2.2879    1.6500    0.0000 C   0  0  0  0  0  0  0  0  0  0  0  0
    2.2879    0.8250    0.0000 C   0  0  0  0  0  0  0  0  0  0  0  0
    1.5735    0.4125    0.0000 C   0  0  0  0  0  0  0  0  0  0  0  0
    0.8590    0.8250    0.0000 C   0  0  0  0  0  0  0  0  0  0  0  0
    0.1445    0.4125    0.0000 C   0  0  0  0  0  0  0  0  0  0  0  0
   -0.5699    0.8250    0.0000 C   0  0  0  0  0  0  0  0  0  0  0  0
   -0.5699    1.6500    0.0000 C   0  0  0  0  0  0  0  0  0  0  0  0
    0.1445    2.0624    0.0000 C   0  0  0  0  0  0  0  0  0  0  0  0
    0.8590    1.6500    0.0000 C   0  0  0  0  0  0  0  0  0  0  0  0
    1.5735   -0.4125    0.0000 N   0  0  0  0  0  0  0  0  0  0  0  0
    0.8590   -0.8250    0.0000 C   0  0  0  0  0  0  0  0  0  0  0  0
    0.1445   -0.4125    0.0000 C   0  0  0  0  0  0  0  0  0  0  0  0
   -0.5699   -0.8250    0.0000 C   0  0  0  0  0  0  0  0  0  0  0  0
   -0.5699   -1.6500    0.0000 C   0  0  0  0  0  0  0  0  0  0  0  0
    0.1445   -2.0624    0.0000 C   0  0  0  0  0  0  0  0  0  0  0  0
    0.8590   -1.6500    0.0000 C   0  0  0  0  0  0  0  0  0  0  0  0
   -2.1775    0.5795    0.0000 S   0  0  0  0  0  0  0  0  0  0  0  0
   -2.5900   -0.1350    0.0000 C   0  0  0  0  0  0  0  0  0  0  0  0
   -2.0380   -0.7481    0.0000 N   0  0  0  0  0  0  0  0  0  0  0  0
   -1.2844   -0.4125    0.0000 C   0  0  0  0  0  0  0  0  0  0  0  0
   -1.3706    0.4080    0.0000 C   0  0  0  0  0  0  0  0  0  0  0  0
   -3.4105   -0.2212    0.0000 C   0  0  0  0  0  0  0  0  0  0  0  0
    3.0023    2.0624    0.0000 C   0  0  0  0  0  0  0  0  0  0  0  0
   -1.2844    2.0624    0.0000 O   0  0  0  0  0  0  0  0  0  0  0  0
   -1.9988    1.6500    0.0000 C   0  0  0  0  0  0  0  0  0  0  0  0
  2  3  2  0      
  3  4  1  0      
  4  5  2  0      
  5  6  1  0      
  6  7  2  0      
  7  8  1  0      
  8  9  2  0      
  9 10  1  0      
 10 11  2  0      
  2 11  1  0      
  6 11  1  0      
  5 12  1  0      
 13 14  1  0      
 14 15  2  0      
 15 16  1  0      
 16 17  2  0      
 17 18  1  0      
 13 18  2  0      
 19 20  1  0      
 20 21  2  0      
 21 22  1  0      
 22 23  2  0      
 19 23  1  0      
 20 24  1  0      
 15 22  1  0      
 12 13  1  0      
  3 25  1  0      
 26 27  1  0      
  9 26  1  0      
M  STY  1   1 SUP
M  SLB  1   1   1
M  SAL   1  1   1
M  SMT   1 H-Cl
M  END

>  <RackCode>
HYCPK72335

>  <Cat. No.>
HY-115903A

>  <Product Name>
HIF-1¦Á-IN-2 (hydrochloride)

>  <ROW>
D

>  <COLUMN>
16

>  <CAS No.>


>  <MWt>
397.92

>  <Target>
HIF/HIF Prolyl-Hydroxylase

>  <Saltdate>
Hydrochloride

>  <Smiles>
CC1=NC(C2=CC(NC3=CC(C)=NC4=CC(OC)=CC=C34)=CC=C2)=CS1.Cl

>  <Solvent>
DMSO Solution

>  <Batch No.>
276489

>  <Quantity>
10mM  * 50uL

>  <Pathway>
Metabolic Enzyme/Protease

>  <Synonyms>


>  <Formula>
C21H20ClN3OS

>  <Research_Area>
Cancer

>  <Clinical_Information>
No Development Reported

>  <SUPPLIER>
MedChemExpress

$$$$
Untitled Document
  ChemDraw08012213402D

 18 20  0  0  0  0  0  0  0  0999 V2000
   -0.7370   -1.1385    0.0000 O   0  0  0  0  0  0  0  0  0  0  0  0
   -0.9919   -0.3539    0.0000 C   0  0  0  0  0  0  0  0  0  0  0  0
   -1.7766   -0.0990    0.0000 C   0  0  0  0  0  0  0  0  0  0  0  0
   -2.4910   -0.5115    0.0000 C   0  0  0  0  0  0  0  0  0  0  0  0
   -3.2055   -0.0990    0.0000 C   0  0  0  0  0  0  0  0  0  0  0  0
   -3.2055    0.7260    0.0000 C   0  0  0  0  0  0  0  0  0  0  0  0
   -2.4910    1.1385    0.0000 N   0  0  0  0  0  0  0  0  0  0  0  0
   -1.7766    0.7260    0.0000 C   0  0  0  0  0  0  0  0  0  0  0  0
   -0.9919    0.9810    0.0000 S   0  0  0  0  0  0  0  0  0  0  0  0
   -0.5070    0.3135    0.0000 N   0  0  0  0  0  0  0  0  0  0  0  0
    0.3180    0.3135    0.0000 C   0  0  0  0  0  0  0  0  0  0  0  0
    0.7305    1.0280    0.0000 C   0  0  0  0  0  0  0  0  0  0  0  0
    1.5555    1.0280    0.0000 C   0  0  0  0  0  0  0  0  0  0  0  0
    1.9680    0.3135    0.0000 C   0  0  0  0  0  0  0  0  0  0  0  0
    2.7930    0.3135    0.0000 O   0  0  0  0  0  0  0  0  0  0  0  0
    3.2055    1.0280    0.0000 C   0  0  0  0  0  0  0  0  0  0  0  0
    1.5555   -0.4009    0.0000 C   0  0  0  0  0  0  0  0  0  0  0  0
    0.7305   -0.4009    0.0000 C   0  0  0  0  0  0  0  0  0  0  0  0
  1  2  2  0      
  2  3  1  0      
  3  4  2  0      
  4  5  1  0      
  5  6  2  0      
  6  7  1  0      
  7  8  2  0      
  3  8  1  0      
  8  9  1  0      
  9 10  1  0      
  2 10  1  0      
 10 11  1  0      
 11 12  2  0      
 12 13  1  0      
 13 14  2  0      
 14 15  1  0      
 15 16  1  0      
 14 17  1  0      
 17 18  2  0      
 11 18  1  0      
M  END

>  <RackCode>
HYCPK72335

>  <Cat. No.>
HY-147288

>  <Product Name>
NSC 694621

>  <ROW>
E

>  <COLUMN>
16

>  <CAS No.>
104857-29-6

>  <MWt>
258.30

>  <Target>
Histone Acetyltransferase

>  <Saltdate>


>  <Smiles>
O=C1C2=CC=CN=C2SN1C3=CC=C(C=C3)OC

>  <Solvent>
DMSO Solution

>  <Batch No.>
242143

>  <Quantity>
10mM  * 50uL

>  <Pathway>
Epigenetics

>  <Synonyms>


>  <Formula>
C13H10N2O2S

>  <Research_Area>
Cancer

>  <Clinical_Information>
No Development Reported

>  <SUPPLIER>
MedChemExpress

$$$$
Untitled Document
  ChemDraw12281517092D

 25 28  0  0  0  0  0  0  0  0999 V2000
   -2.1546    3.1075    0.0000 C   0  0  0  0  0  0  0  0  0  0  0  0
   -1.4402    3.5200    0.0000 N   0  0  0  0  0  0  0  0  0  0  0  0
   -0.7257    3.1075    0.0000 C   0  0  0  0  0  0  0  0  0  0  0  0
   -0.7257    2.2825    0.0000 C   0  0  0  0  0  0  0  0  0  0  0  0
   -1.4402    1.8700    0.0000 C   0  0  0  0  0  0  0  0  0  0  0  0
   -2.1546    2.2825    0.0000 N   0  0  0  0  0  0  0  0  0  0  0  0
    0.0589    2.0276    0.0000 C   0  0  0  0  0  0  0  0  0  0  0  0
    0.5438    2.6950    0.0000 C   0  0  0  0  0  0  0  0  0  0  0  0
    0.0589    3.3625    0.0000 S   0  0  0  0  0  0  0  0  0  0  0  0
    1.3688    2.6950    0.0000 C   0  0  0  0  0  0  0  0  0  0  0  0
    1.7813    3.4095    0.0000 C   0  0  0  0  0  0  0  0  0  0  0  0
    2.6063    3.4095    0.0000 C   0  0  0  0  0  0  0  0  0  0  0  0
   -1.4402    1.0450    0.0000 N   0  0  0  0  0  0  0  0  0  0  0  0
   -0.7257    0.6325    0.0000 C   0  0  0  0  0  0  0  0  0  0  0  0
   -0.7257   -0.1925    0.0000 C   0  0  0  0  0  0  0  0  0  0  0  0
   -1.4402   -0.6050    0.0000 N   0  0  0  0  0  0  0  0  0  0  0  0
   -2.1546   -0.1925    0.0000 C   0  0  0  0  0  0  0  0  0  0  0  0
   -2.1546    0.6325    0.0000 C   0  0  0  0  0  0  0  0  0  0  0  0
   -2.1076   -1.9149    0.0000 S   0  0  0  0  0  0  0  0  0  0  0  0
   -1.4402   -1.4300    0.0000 C   0  0  0  0  0  0  0  0  0  0  0  0
   -0.7727   -1.9149    0.0000 N   0  0  0  0  0  0  0  0  0  0  0  0
   -1.0277   -2.6995    0.0000 C   0  0  0  0  0  0  0  0  0  0  0  0
   -1.8527   -2.6995    0.0000 C   0  0  0  0  0  0  0  0  0  0  0  0
   -1.9389   -3.5200    0.0000 C   0  0  0  0  0  0  0  0  0  0  0  0
   -2.6063   -3.0351    0.0000 C   0  0  0  0  0  0  0  0  0  0  0  0
  1  2  1  0      
  2  3  2  0      
  3  4  1  0      
  4  5  2  0      
  5  6  1  0      
  1  6  2  0      
  7  8  2  0      
  8  9  1  0      
  3  9  1  0      
  4  7  1  0      
 10 11  1  0      
 11 12  1  0      
  8 10  1  0      
 13 14  1  0      
 14 15  1  0      
 15 16  1  0      
 16 17  1  0      
 17 18  1  0      
 13 18  1  0      
 19 20  1  0      
 20 21  2  0      
 21 22  1  0      
 22 23  1  0      
 19 23  1  0      
 23 24  1  0      
 23 25  1  0      
 16 20  1  0      
  5 13  1  0      
M  END

>  <RackCode>
HYCPK72335

>  <Cat. No.>
HY-15222

>  <Product Name>
Menin-MLL inhibitor MI-2

>  <ROW>
F

>  <COLUMN>
16

>  <CAS No.>
1271738-62-5

>  <MWt>
375.55

>  <Target>
Apoptosis; Epigenetic Reader Domain

>  <Saltdate>
Free Base

>  <Smiles>
CCCC1=CC2=C(N3CCN(C4=NCC(C)(C)S4)CC3)N=CN=C2S1

>  <Solvent>
DMSO Solution

>  <Batch No.>
06399

>  <Quantity>
10mM  * 50uL

>  <Pathway>
Apoptosis; Epigenetics

>  <Synonyms>


>  <Formula>
C18H25N5S2

>  <Research_Area>
Cancer

>  <Clinical_Information>
No Development Reported

>  <SUPPLIER>
MedChemExpress

$$$$
Untitled Document
  ChemDraw04232312432D

 21 20  0  0  0  0  0  0  0  0999 V2000
    5.7156    0.6187    0.0000 O   0  0  0  0  0  0  0  0  0  0  0  0
    5.7156   -0.2062    0.0000 C   0  0  0  0  0  0  0  0  0  0  0  0
    6.4300   -0.6187    0.0000 O   0  0  0  0  0  0  0  0  0  0  0  0
    5.0011   -0.6187    0.0000 C   0  0  0  0  0  0  0  0  0  0  0  0
    4.2867   -0.2062    0.0000 C   0  0  0  0  0  0  0  0  0  0  0  0
    3.5723   -0.6187    0.0000 C   0  0  0  0  0  0  0  0  0  0  0  0
    2.8578   -0.2062    0.0000 C   0  0  0  0  0  0  0  0  0  0  0  0
    2.1433   -0.6187    0.0000 C   0  0  0  0  0  0  0  0  0  0  0  0
    1.4289   -0.2062    0.0000 C   0  0  0  0  0  0  0  0  0  0  0  0
    0.7145   -0.6187    0.0000 C   0  0  0  0  0  0  0  0  0  0  0  0
    0.0000   -0.2062    0.0000 C   0  0  0  0  0  0  0  0  0  0  0  0
    0.0000    0.6187    0.0000 O   0  0  0  0  0  0  0  0  0  0  0  0
   -0.7145   -0.6187    0.0000 C   0  0  0  0  0  0  0  0  0  0  0  0
   -1.4289   -0.2062    0.0000 C   0  0  0  0  0  0  0  0  0  0  0  0
   -2.1433   -0.6187    0.0000 C   0  0  0  0  0  0  0  0  0  0  0  0
   -2.8578   -0.2062    0.0000 C   0  0  0  0  0  0  0  0  0  0  0  0
   -3.5723   -0.6187    0.0000 C   0  0  0  0  0  0  0  0  0  0  0  0
   -4.2867   -0.2062    0.0000 C   0  0  0  0  0  0  0  0  0  0  0  0
   -5.0011   -0.6187    0.0000 C   0  0  0  0  0  0  0  0  0  0  0  0
   -5.7156   -0.2062    0.0000 C   0  0  0  0  0  0  0  0  0  0  0  0
   -6.4300   -0.6187    0.0000 C   0  0  0  0  0  0  0  0  0  0  0  0
  1  2  2  0      
  2  3  1  0      
  2  4  1  0      
  4  5  1  0      
  5  6  1  0      
  6  7  1  0      
  7  8  1  0      
  8  9  1  0      
  9 10  1  0      
 10 11  1  0      
 11 12  1  0      
 11 13  1  0      
 13 14  1  0      
 14 15  1  0      
 15 16  1  0      
 16 17  1  0      
 17 18  1  0      
 18 19  1  0      
 19 20  1  0      
 20 21  1  0      
M  END

>  <RackCode>
HYCPK72335

>  <Cat. No.>
HY-N11692

>  <Product Name>
9-Hydroxyoctadecanoic acid

>  <ROW>
G

>  <COLUMN>
16

>  <CAS No.>
3384-24-5

>  <MWt>
300.48

>  <Target>
HDAC

>  <Saltdate>


>  <Smiles>
O=C(CCCCCCCC(CCCCCCCCC)O)O

>  <Solvent>
DMSO Solution

>  <Batch No.>
263995

>  <Quantity>
10mM  * 50uL

>  <Pathway>
Cell Cycle/DNA Damage; Epigenetics

>  <Synonyms>
9-Hydroxystearic acid; 9-HSA

>  <Formula>
C18H36O3

>  <Research_Area>
Cancer

>  <Clinical_Information>
No Development Reported

>  <SUPPLIER>
MedChemExpress

$$$$
Untitled Document
  ChemDraw05221716422D

 43 46  0  0  0  0  0  0  0  0999 V2000
   -4.6366    1.4380    0.0000 C   0  0  0  0  0  0  0  0  0  0  0  0
   -4.6366    0.6130    0.0000 C   0  0  0  0  0  0  0  0  0  0  0  0
   -3.9222    0.2005    0.0000 C   0  0  0  0  0  0  0  0  0  0  0  0
   -3.2077    0.6130    0.0000 C   0  0  0  0  0  0  0  0  0  0  0  0
   -3.2077    1.4380    0.0000 C   0  0  0  0  0  0  0  0  0  0  0  0
   -3.9222    1.8505    0.0000 C   0  0  0  0  0  0  0  0  0  0  0  0
   -2.4932    0.2005    0.0000 C   0  0  0  0  0  0  0  0  0  0  0  0
   -1.7787    0.6130    0.0000 C   0  0  0  0  0  0  0  0  0  0  0  0
   -1.7787    1.4380    0.0000 C   0  0  0  0  0  0  0  0  0  0  0  0
   -2.4932    1.8505    0.0000 C   0  0  0  0  0  0  0  0  0  0  0  0
   -1.0667    1.8491    0.0000 C   0  0  0  0  0  0  0  0  0  0  0  0
   -0.3548    1.4380    0.0000 N   0  0  0  0  0  0  0  0  0  0  0  0
   -1.0667    2.6712    0.0000 O   0  0  0  0  0  0  0  0  0  0  0  0
   -1.0667    0.2020    0.0000 O   0  0  0  0  0  0  0  0  0  0  0  0
    0.3572    1.8491    0.0000 C   0  0  0  0  0  0  0  0  0  0  0  0
    1.0717    1.4366    0.0000 C   0  0  0  0  0  0  0  0  0  0  0  0
    1.7862    1.8491    0.0000 C   0  0  0  0  0  0  0  0  0  0  0  0
    1.7862    2.6741    0.0000 C   0  0  0  0  0  0  0  0  0  0  0  0
    1.0717    3.0866    0.0000 C   0  0  0  0  0  0  0  0  0  0  0  0
    0.3572    2.6741    0.0000 C   0  0  0  0  0  0  0  0  0  0  0  0
   -0.3548    3.0852    0.0000 O   0  0  0  0  0  0  0  0  0  0  0  0
    2.4982    3.0852    0.0000 Cl  0  0  0  0  0  0  0  0  0  0  0  0
   -0.3548    0.6130    0.0000 C   0  0  0  0  0  0  0  0  0  0  0  0
    0.3572    0.2020    0.0000 C   0  0  0  0  0  0  0  0  0  0  0  0
    1.0692    0.6130    0.0000 N   0  0  0  0  0  0  0  0  0  0  0  0
    1.7812    0.2020    0.0000 C   0  0  0  0  0  0  0  0  0  0  0  0
    2.4932    0.6130    0.0000 C   0  0  0  0  0  0  0  0  0  0  0  0
    1.7812   -0.6202    0.0000 O   0  0  0  0  0  0  0  0  0  0  0  0
    3.2077    0.2005    0.0000 C   0  0  0  0  0  0  0  0  0  0  0  0
    3.9222    0.6130    0.0000 C   0  0  0  0  0  0  0  0  0  0  0  0
    3.9222    1.4380    0.0000 C   0  0  0  0  0  0  0  0  0  0  0  0
    3.2077    1.8505    0.0000 C   0  0  0  0  0  0  0  0  0  0  0  0
    2.4932    1.4380    0.0000 C   0  0  0  0  0  0  0  0  0  0  0  0
    4.6366    1.8505    0.0000 C   0  0  0  0  0  0  0  0  0  0  0  0
    4.6366    2.6755    0.0000 C   0  0  0  0  0  0  0  0  0  0  0  0
    3.9222    3.0880    0.0000 C   0  0  0  0  0  0  0  0  0  0  0  0
    3.2077    2.6755    0.0000 C   0  0  0  0  0  0  0  0  0  0  0  0
    3.2077   -0.6216    0.0000 O   0  0  0  0  0  0  0  0  0  0  0  0
    3.9197   -1.0327    0.0000 C   0  0  0  0  0  0  0  0  0  0  0  0
    3.9197   -1.8548    0.0000 C   0  0  0  0  0  0  0  0  0  0  0  0
    4.6317   -2.2659    0.0000 C   0  0  0  0  0  0  0  0  0  0  0  0
    4.6317   -3.0880    0.0000 N   0  0  0  0  0  0  0  0  0  0  0  0
    0.3783   -1.9015    0.0000 Cl  0  0  0  0  0  0  0  0  0  0  0  0
  1  2  2  0      
  2  3  1  0      
  3  4  2  0      
  4  5  1  0      
  5  6  2  0      
  6  1  1  0      
  4  7  1  0      
  7  8  2  0      
  8  9  1  0      
  9 10  2  0      
 10  5  1  0      
  9 11  1  0      
 11 12  1  0      
 11 13  2  0      
  8 14  1  0      
 12 15  1  0      
 15 16  2  0      
 16 17  1  0      
 17 18  2  0      
 18 19  1  0      
 19 20  2  0      
 20 15  1  0      
 20 21  1  0      
 18 22  1  0      
 14 23  1  0      
 23 24  1  0      
 24 25  1  0      
 25 26  1  0      
 26 27  1  0      
 26 28  2  0      
 27 29  2  0      
 29 30  1  0      
 30 31  2  0      
 31 32  1  0      
 32 33  2  0      
 33 27  1  0      
 31 34  1  0      
 34 35  2  0      
 35 36  1  0      
 36 37  2  0      
 37 32  1  0      
 29 38  1  0      
 38 39  1  0      
 39 40  1  0      
 40 41  1  0      
 41 42  1  0      
M  END

>  <RackCode>
HYCPK72335

>  <Cat. No.>
HY-101120

>  <Product Name>
666-15

>  <ROW>
H

>  <COLUMN>
16

>  <CAS No.>
1433286-70-4

>  <MWt>
620.52

>  <Target>
Epigenetic Reader Domain

>  <Saltdate>
Hydrochloride

>  <Smiles>
O=C(NC1=CC=C(Cl)C=C1O)C2=CC3=CC=CC=C3C=C2OCCNC(C4=C(OCCCN)C=C(C=CC=C5)C5=C4)=O.Cl

>  <Solvent>
DMSO Solution

>  <Batch No.>
245392

>  <Quantity>
10mM  * 50uL

>  <Pathway>
Epigenetics

>  <Synonyms>


>  <Formula>
C33H31Cl2N3O5

>  <Research_Area>
Cancer

>  <Clinical_Information>
No Development Reported

>  <SUPPLIER>
MedChemExpress

$$$$
Untitled Document
  ChemDraw10181708492D

 33 38  0  0  0  0  0  0  0  0999 V2000
    1.1239   -2.3306    0.0000 N   0  0  0  0  0  0  0  0  0  0  0  0
    0.3393   -2.5855    0.0000 C   0  0  0  0  0  0  0  0  0  0  0  0
   -0.1456   -1.9181    0.0000 C   0  0  0  0  0  0  0  0  0  0  0  0
    0.3393   -1.2506    0.0000 C   0  0  0  0  0  0  0  0  0  0  0  0
    1.1239   -1.5056    0.0000 C   0  0  0  0  0  0  0  0  0  0  0  0
    0.0844   -3.3701    0.0000 O   0  0  0  0  0  0  0  0  0  0  0  0
    1.7914   -1.0206    0.0000 O   0  0  0  0  0  0  0  0  0  0  0  0
    0.0844    0.8689    0.0000 N   0  0  0  0  0  0  0  0  0  0  0  0
    0.5693    0.2014    0.0000 C   0  0  0  0  0  0  0  0  0  0  0  0
    0.0844   -0.4660    0.0000 C   0  0  0  0  0  0  0  0  0  0  0  0
   -0.7003   -0.2111    0.0000 C   0  0  0  0  0  0  0  0  0  0  0  0
   -1.4147   -0.6236    0.0000 C   0  0  0  0  0  0  0  0  0  0  0  0
   -2.1292   -0.2111    0.0000 C   0  0  0  0  0  0  0  0  0  0  0  0
   -2.1292    0.6139    0.0000 C   0  0  0  0  0  0  0  0  0  0  0  0
   -1.4147    1.0264    0.0000 C   0  0  0  0  0  0  0  0  0  0  0  0
   -0.7003    0.6139    0.0000 C   0  0  0  0  0  0  0  0  0  0  0  0
    0.3393    1.6535    0.0000 C   0  0  0  0  0  0  0  0  0  0  0  0
    1.1463    1.8250    0.0000 C   0  0  0  0  0  0  0  0  0  0  0  0
    2.1858    2.8646    0.0000 N   0  0  0  0  0  0  0  0  0  0  0  0
    1.4012    2.6096    0.0000 C   0  0  0  0  0  0  0  0  0  0  0  0
    0.9163    3.2771    0.0000 C   0  0  0  0  0  0  0  0  0  0  0  0
    1.4012    3.9445    0.0000 C   0  0  0  0  0  0  0  0  0  0  0  0
    2.1858    3.6896    0.0000 C   0  0  0  0  0  0  0  0  0  0  0  0
    2.8533    2.3797    0.0000 C   0  0  0  0  0  0  0  0  0  0  0  0
   -2.2402   -1.5056    0.0000 N   0  0  0  0  0  0  0  0  0  0  0  0
   -1.4556   -1.2506    0.0000 C   0  0  0  0  0  0  0  0  0  0  0  0
   -0.9706   -1.9181    0.0000 C   0  0  0  0  0  0  0  0  0  0  0  0
   -1.4556   -2.5855    0.0000 C   0  0  0  0  0  0  0  0  0  0  0  0
   -1.2840   -3.3925    0.0000 C   0  0  0  0  0  0  0  0  0  0  0  0
   -1.8971   -3.9445    0.0000 C   0  0  0  0  0  0  0  0  0  0  0  0
   -2.6817   -3.6896    0.0000 C   0  0  0  0  0  0  0  0  0  0  0  0
   -2.8533   -2.8826    0.0000 C   0  0  0  0  0  0  0  0  0  0  0  0
   -2.2402   -2.3306    0.0000 C   0  0  0  0  0  0  0  0  0  0  0  0
  1  2  1  0      
  2  3  1  0      
  3  4  2  0      
  4  5  1  0      
  1  5  1  0      
  2  6  2  0      
  5  7  2  0      
  8  9  1  0      
  9 10  2  0      
 10 11  1  0      
 11 12  1  0      
 12 13  2  0      
 13 14  1  0      
 14 15  2  0      
 15 16  1  0      
  8 16  1  0      
 11 16  2  0      
 17 18  1  0      
 19 20  1  0      
 20 21  1  0      
 21 22  1  0      
 22 23  1  0      
 19 23  1  0      
 19 24  1  0      
 18 20  1  0      
  8 17  1  0      
  4 10  1  0      
 25 26  1  0      
 26 27  2  0      
 27 28  1  0      
 28 29  1  0      
 29 30  2  0      
 30 31  1  0      
 31 32  2  0      
 32 33  1  0      
 25 33  1  0      
 28 33  2  0      
  3 27  1  0      
M  END

>  <RackCode>
HYCPK72335

>  <Cat. No.>
HY-108604

>  <Product Name>
Bisindolylmaleimide II

>  <ROW>
I

>  <COLUMN>
16

>  <CAS No.>
137592-45-1

>  <MWt>
438.52

>  <Target>
PKC

>  <Saltdate>


>  <Smiles>
O=C(C(C1=CNC2=C1C=CC=C2)=C3C4=CN(CCC5N(C)CCC5)C6=C4C=CC=C6)NC3=O

>  <Solvent>
DMSO Solution

>  <Batch No.>
409845

>  <Quantity>
10mM  * 50uL

>  <Pathway>
Epigenetics; TGF-beta/Smad

>  <Synonyms>
Bis II

>  <Formula>
C27H26N4O2

>  <Research_Area>
Cancer; Metabolic Disease

>  <Clinical_Information>
No Development Reported

>  <SUPPLIER>
MedChemExpress

$$$$
Untitled Document
  ChemDraw01221814272D

 32 36  0  0  0  0  0  0  0  0999 V2000
    0.0000   -3.3000    0.0000 N   0  0  0  0  0  0  0  0  0  0  0  0
    0.7145   -2.8875    0.0000 C   0  0  0  0  0  0  0  0  0  0  0  0
    0.7145   -2.0625    0.0000 N   0  0  0  0  0  0  0  0  0  0  0  0
    0.0000   -1.6500    0.0000 C   0  0  0  0  0  0  0  0  0  0  0  0
   -0.7145   -2.0625    0.0000 C   0  0  0  0  0  0  0  0  0  0  0  0
   -1.4289   -1.6500    0.0000 C   0  0  0  0  0  0  0  0  0  0  0  0
   -2.1434   -2.0625    0.0000 C   0  0  0  0  0  0  0  0  0  0  0  0
   -2.1434   -2.8875    0.0000 C   0  0  0  0  0  0  0  0  0  0  0  0
   -1.4289   -3.3000    0.0000 C   0  0  0  0  0  0  0  0  0  0  0  0
   -0.7145   -2.8875    0.0000 C   0  0  0  0  0  0  0  0  0  0  0  0
    1.4289   -3.3000    0.0000 O   0  0  0  0  0  0  0  0  0  0  0  0
    1.4289   -1.6500    0.0000 C   0  0  0  0  0  0  0  0  0  0  0  0
    1.4289    0.8250    0.0000 N   0  0  0  0  0  0  0  0  0  0  0  0
    2.1434    0.4125    0.0000 C   0  0  0  0  0  0  0  0  0  0  0  0
    2.1434   -0.4125    0.0000 C   0  0  0  0  0  0  0  0  0  0  0  0
    1.4289   -0.8250    0.0000 C   0  0  0  0  0  0  0  0  0  0  0  0
    0.7145   -0.4125    0.0000 C   0  0  0  0  0  0  0  0  0  0  0  0
    0.7145    0.4125    0.0000 C   0  0  0  0  0  0  0  0  0  0  0  0
    1.4289    3.3000    0.0000 N   0  0  0  0  0  0  0  0  0  0  0  0
    2.1434    2.8875    0.0000 C   0  0  0  0  0  0  0  0  0  0  0  0
    2.1434    2.0625    0.0000 N   0  0  0  0  0  0  0  0  0  0  0  0
    1.4289    1.6500    0.0000 C   0  0  0  0  0  0  0  0  0  0  0  0
    0.7145    2.0625    0.0000 C   0  0  0  0  0  0  0  0  0  0  0  0
    0.0000    1.6500    0.0000 C   0  0  0  0  0  0  0  0  0  0  0  0
   -0.7145    2.0625    0.0000 C   0  0  0  0  0  0  0  0  0  0  0  0
   -0.7145    2.8875    0.0000 C   0  0  0  0  0  0  0  0  0  0  0  0
    0.0000    3.3000    0.0000 C   0  0  0  0  0  0  0  0  0  0  0  0
    0.7145    2.8875    0.0000 C   0  0  0  0  0  0  0  0  0  0  0  0
   -1.4289    3.3000    0.0000 O   0  0  0  0  0  0  0  0  0  0  0  0
   -2.1434    2.8875    0.0000 C   0  0  0  0  0  0  0  0  0  0  0  0
   -1.4289    1.6500    0.0000 O   0  0  0  0  0  0  0  0  0  0  0  0
   -2.1434    2.0625    0.0000 C   0  0  0  0  0  0  0  0  0  0  0  0
  1  2  1  0      
  2  3  1  0      
  3  4  1  0      
  4  5  1  0      
  5  6  1  0      
  6  7  2  0      
  7  8  1  0      
  8  9  2  0      
  9 10  1  0      
  1 10  1  0      
  5 10  2  0      
  2 11  2  0      
 13 14  1  0      
 14 15  1  0      
 15 16  1  0      
 16 17  1  0      
 17 18  1  0      
 13 18  1  0      
 19 20  1  0      
 20 21  2  0      
 21 22  1  0      
 22 23  2  0      
 23 24  1  0      
 24 25  2  0      
 25 26  1  0      
 26 27  2  0      
 27 28  1  0      
 19 28  2  0      
 23 28  1  0      
 29 30  1  0      
 26 29  1  0      
 31 32  1  0      
 25 31  1  0      
 13 22  1  0      
 12 16  1  0      
  3 12  1  0      
M  END

>  <RackCode>
HYCPK72335

>  <Cat. No.>
HY-U00422

>  <Product Name>
K-756

>  <ROW>
J

>  <COLUMN>
16

>  <CAS No.>
130017-40-2

>  <MWt>
433.50

>  <Target>
PARP

>  <Saltdate>
Free Base

>  <Smiles>
O=C1NC2=C(C=CC=C2)CN1CC3CCN(C4=C5C=C(OC)C(OC)=CC5=NC=N4)CC3

>  <Solvent>
DMSO Solution

>  <Batch No.>
152610

>  <Quantity>
10mM  * 50uL

>  <Pathway>
Cell Cycle/DNA Damage; Epigenetics

>  <Synonyms>


>  <Formula>
C24H27N5O3

>  <Research_Area>
Cancer

>  <Clinical_Information>
No Development Reported

>  <SUPPLIER>
MedChemExpress

$$$$
Untitled Document
  ChemDraw11062310462D

 46 48  0  0  0  0  0  0  0  0999 V2000
    1.0717    0.8812    0.0000 C   0  0  0  0  0  0  0  0  0  0  0  0
    1.0717    0.0562    0.0000 C   0  0  0  0  0  0  0  0  0  0  0  0
    0.3572   -0.3563    0.0000 C   0  0  0  0  0  0  0  0  0  0  0  0
    0.3572   -1.1813    0.0000 C   0  0  0  0  0  0  0  0  0  0  0  0
    1.0717   -1.5937    0.0000 C   0  0  0  0  0  0  0  0  0  0  0  0
    1.7861   -1.1813    0.0000 C   0  0  0  0  0  0  0  0  0  0  0  0
    1.7861   -0.3563    0.0000 C   0  0  0  0  0  0  0  0  0  0  0  0
    0.3572    1.2937    0.0000 O   0  0  0  0  0  0  0  0  0  0  0  0
    1.7861    1.2937    0.0000 N   0  0  0  0  0  0  0  0  0  0  0  0
    2.5005   -1.5937    0.0000 C   0  0  0  0  0  0  0  0  0  0  0  0
    3.2150   -2.0062    0.0000 C   0  0  0  0  0  0  0  0  0  0  0  0
    3.9295   -2.4187    0.0000 C   0  0  0  0  0  0  0  0  0  0  0  0
    4.6440   -2.0062    0.0000 N   0  0  0  0  0  0  0  0  0  0  0  0
    5.3583   -2.4187    0.0000 C   0  0  0  0  0  0  0  0  0  0  0  0
    6.0728   -2.0062    0.0000 C   0  0  0  0  0  0  0  0  0  0  0  0
    6.0728   -1.1813    0.0000 O   0  0  0  0  0  0  0  0  0  0  0  0
    5.3583   -0.7688    0.0000 C   0  0  0  0  0  0  0  0  0  0  0  0
    4.6440   -1.1813    0.0000 C   0  0  0  0  0  0  0  0  0  0  0  0
   -0.3572    0.0562    0.0000 C   0  0  0  0  0  0  0  0  0  0  0  0
   -0.3572   -1.5937    0.0000 N   0  0  0  0  0  0  0  0  0  0  0  0
   -1.0717   -1.1813    0.0000 C   0  0  0  0  0  0  0  0  0  0  0  0
   -1.0717   -0.3563    0.0000 C   0  0  0  0  0  0  0  0  0  0  0  0
   -1.7861    0.0562    0.0000 C   0  0  0  0  0  0  0  0  0  0  0  0
   -2.5006   -0.3563    0.0000 C   0  0  0  0  0  0  0  0  0  0  0  0
   -2.5006   -1.1813    0.0000 C   0  0  0  0  0  0  0  0  0  0  0  0
   -1.7861   -1.5937    0.0000 C   0  0  0  0  0  0  0  0  0  0  0  0
   -3.2150    0.0562    0.0000 N   0  0  0  0  0  0  0  0  0  0  0  0
   -3.2150    0.8812    0.0000 C   0  0  0  0  0  0  0  0  0  0  0  0
   -3.9295   -0.3563    0.0000 C   0  0  0  0  0  0  0  0  0  0  0  0
   -4.6440    0.0562    0.0000 C   0  0  0  0  0  0  0  0  0  0  0  0
   -5.3583   -0.3563    0.0000 O   0  0  0  0  0  0  0  0  0  0  0  0
   -6.0728    0.0562    0.0000 C   0  0  0  0  0  0  0  0  0  0  0  0
   -0.3572   -2.4187    0.0000 C   0  0  0  0  0  0  0  0  0  0  0  0
   -1.0717   -2.8312    0.0000 C   0  0  0  0  0  0  0  0  0  0  0  0
    1.7861    2.1187    0.0000 C   0  0  0  0  0  0  0  0  0  0  0  0
    2.5005    3.3561    0.0000 C   0  0  0  0  0  0  0  0  0  0  0  0
    2.5005    2.5311    0.0000 C   0  0  0  0  0  0  0  0  0  0  0  0
    3.2150    2.1187    0.0000 C   0  0  0  0  0  0  0  0  0  0  0  0
    3.9295    2.5311    0.0000 C   0  0  0  0  0  0  0  0  0  0  0  0
    3.9295    3.3561    0.0000 C   0  0  0  0  0  0  0  0  0  0  0  0
    3.2150    3.7686    0.0000 N   0  0  0  0  0  0  0  0  0  0  0  0
    1.7861    3.7686    0.0000 O   0  0  0  0  0  0  0  0  0  0  0  0
    4.6440    3.7686    0.0000 C   0  0  0  0  0  0  0  0  0  0  0  0
    3.2150    1.2937    0.0000 C   0  0  0  0  0  0  0  0  0  0  0  0
   -0.0925   -3.7686    0.0000 H   0  0  0  0  0  0  0  0  0  0  0  0
    0.7325   -3.7686    0.0000 Cl  0  0  0  0  0  0  0  0  0  0  0  0
  1  2  1  0      
  2  3  1  0      
  3  4  2  0      
  4  5  1  0      
  5  6  2  0      
  6  7  1  0      
  2  7  2  0      
  1  8  2  0      
  1  9  1  0      
 10 11  3  0      
 11 12  1  0      
 13 14  1  0      
 14 15  1  0      
 15 16  1  0      
 16 17  1  0      
 17 18  1  0      
 13 18  1  0      
 12 13  1  0      
  6 10  1  0      
  3 19  1  0      
 21 22  1  0      
 22 23  1  0      
 23 24  1  0      
 24 25  1  0      
 25 26  1  0      
 21 26  1  0      
 27 28  1  0      
 29 30  1  0      
 31 32  1  0      
 30 31  1  0      
 27 29  1  0      
 24 27  1  1      
 21 20  1  6      
 33 34  1  0      
 20 33  1  0      
  4 20  1  0      
 36 37  1  0      
 37 38  2  0      
 38 39  1  0      
 39 40  2  0      
 40 41  1  0      
 36 41  1  0      
 36 42  2  0      
 40 43  1  0      
 38 44  1  0      
 35 37  1  0      
  9 35  1  0      
 45 46  1  0      
M  END

>  <RackCode>
HYCPK72335

>  <Cat. No.>
HY-16986B

>  <Product Name>
EPZ011989 (hydrochloride)

>  <ROW>
K

>  <COLUMN>
16

>  <CAS No.>
2095432-26-9

>  <MWt>
642.27

>  <Target>
Histone Methyltransferase

>  <Saltdate>
Hydrochloride

>  <Smiles>
O=C(NCC1=C(C)C=C(C)NC1=O)C2=CC(C#CCN3CCOCC3)=CC(N(CC)[C@H]4CC[C@H](N(CCOC)C)CC4)=C2C.[H]Cl

>  <Solvent>
DMSO Solution

>  <Batch No.>
309763

>  <Quantity>
10mM  * 50uL

>  <Pathway>
Epigenetics

>  <Synonyms>


>  <Formula>
C35H52ClN5O4

>  <Research_Area>
Cancer

>  <Clinical_Information>
No Development Reported

>  <SUPPLIER>
MedChemExpress

$$$$
Untitled Document
  ChemDraw02112216562D

 21 23  0  0  0  0  0  0  0  0999 V2000
   -0.5307   -0.0784    0.0000 O   0  0  0  0  0  0  0  0  0  0  0  0
   -0.7857    0.7062    0.0000 C   0  0  0  0  0  0  0  0  0  0  0  0
   -0.3008    1.3737    0.0000 N   0  0  0  0  0  0  0  0  0  0  0  0
    0.5242    1.3737    0.0000 C   0  0  0  0  0  0  0  0  0  0  0  0
    0.9367    0.6592    0.0000 C   0  0  0  0  0  0  0  0  0  0  0  0
    1.7617    0.6592    0.0000 C   0  0  0  0  0  0  0  0  0  0  0  0
    2.1742   -0.0553    0.0000 C   0  0  0  0  0  0  0  0  0  0  0  0
    1.7617   -0.7697    0.0000 C   0  0  0  0  0  0  0  0  0  0  0  0
    2.1742   -1.4842    0.0000 C   0  0  0  0  0  0  0  0  0  0  0  0
    1.7617   -2.1987    0.0000 F   0  0  0  0  0  0  0  0  0  0  0  0
    2.5867   -2.1987    0.0000 F   0  0  0  0  0  0  0  0  0  0  0  0
    2.9992   -1.4842    0.0000 F   0  0  0  0  0  0  0  0  0  0  0  0
    0.9367   -0.7697    0.0000 C   0  0  0  0  0  0  0  0  0  0  0  0
    0.5242   -0.0553    0.0000 C   0  0  0  0  0  0  0  0  0  0  0  0
   -0.7857    2.0411    0.0000 S   0  0  0  0  0  0  0  0  0  0  0  0
   -1.5703    1.7862    0.0000 C   0  0  0  0  0  0  0  0  0  0  0  0
   -2.2848    2.1987    0.0000 N   0  0  0  0  0  0  0  0  0  0  0  0
   -2.9992    1.7862    0.0000 C   0  0  0  0  0  0  0  0  0  0  0  0
   -2.9992    0.9612    0.0000 C   0  0  0  0  0  0  0  0  0  0  0  0
   -2.2848    0.5487    0.0000 C   0  0  0  0  0  0  0  0  0  0  0  0
   -1.5703    0.9612    0.0000 C   0  0  0  0  0  0  0  0  0  0  0  0
  1  2  2  0      
  2  3  1  0      
  3  4  1  0      
  4  5  1  0      
  5  6  2  0      
  6  7  1  0      
  7  8  2  0      
  8  9  1  0      
  9 10  1  0      
  9 11  1  0      
  9 12  1  0      
  8 13  1  0      
 13 14  2  0      
  5 14  1  0      
  3 15  1  0      
 15 16  1  0      
 16 17  2  0      
 17 18  1  0      
 18 19  2  0      
 19 20  1  0      
 20 21  2  0      
 16 21  1  0      
  2 21  1  0      
M  END

>  <RackCode>
HYCPK72335

>  <Cat. No.>
HY-120290

>  <Product Name>
PU141

>  <ROW>
L

>  <COLUMN>
16

>  <CAS No.>
168334-34-7

>  <MWt>
310.29

>  <Target>
Histone Acetyltransferase

>  <Saltdate>


>  <Smiles>
O=C1N(SC2=NC=CC=C21)CC3=CC=C(C=C3)C(F)(F)F

>  <Solvent>
DMSO Solution

>  <Batch No.>
316031

>  <Quantity>
10mM  * 50uL

>  <Pathway>
Epigenetics

>  <Synonyms>


>  <Formula>
C14H9F3N2OS

>  <Research_Area>
Cancer

>  <Clinical_Information>
No Development Reported

>  <SUPPLIER>
MedChemExpress

$$$$
Untitled Document
  ChemDraw01282210412D

 27 29  0  0  0  0  0  0  0  0999 V2000
    2.1434    1.8563    0.0000 O   0  0  0  0  0  0  0  0  0  0  0  0
    2.1434    1.0313    0.0000 C   0  0  0  0  0  0  0  0  0  0  0  0
    2.8579    0.6187    0.0000 O   0  0  0  0  0  0  0  0  0  0  0  0
    3.5724    1.0313    0.0000 C   0  0  0  0  0  0  0  0  0  0  0  0
    3.5724    1.8563    0.0000 C   0  0  0  0  0  0  0  0  0  0  0  0
    4.2868    1.4437    0.0000 C   0  0  0  0  0  0  0  0  0  0  0  0
    4.2868    0.6187    0.0000 C   0  0  0  0  0  0  0  0  0  0  0  0
    1.4289    0.6187    0.0000 N   0  0  0  0  0  0  0  0  0  0  0  0
    1.4289   -0.2062    0.0000 C   0  0  0  0  0  0  0  0  0  0  0  0
    0.7145   -0.6187    0.0000 C   0  0  0  0  0  0  0  0  0  0  0  0
   -0.0000   -0.2062    0.0000 N   0  0  0  0  0  0  0  0  0  0  0  0
   -0.7145   -0.6187    0.0000 C   0  0  0  0  0  0  0  0  0  0  0  0
   -1.4289   -0.2062    0.0000 C   0  0  0  0  0  0  0  0  0  0  0  0
   -2.1434   -0.6187    0.0000 C   0  0  0  0  0  0  0  0  0  0  0  0
   -2.1434   -1.4437    0.0000 N   0  0  0  0  0  0  0  0  0  0  0  0
   -1.4289   -1.8563    0.0000 N   0  0  0  0  0  0  0  0  0  0  0  0
   -0.7145   -1.4437    0.0000 C   0  0  0  0  0  0  0  0  0  0  0  0
   -0.0000   -1.8563    0.0000 N   0  0  0  0  0  0  0  0  0  0  0  0
   -2.8579   -0.2062    0.0000 C   0  0  0  0  0  0  0  0  0  0  0  0
   -3.5724   -0.6187    0.0000 C   0  0  0  0  0  0  0  0  0  0  0  0
   -4.2868   -0.2062    0.0000 C   0  0  0  0  0  0  0  0  0  0  0  0
   -4.2868    0.6187    0.0000 C   0  0  0  0  0  0  0  0  0  0  0  0
   -3.5724    1.0313    0.0000 C   0  0  0  0  0  0  0  0  0  0  0  0
   -2.8579    0.6187    0.0000 C   0  0  0  0  0  0  0  0  0  0  0  0
   -2.1434    1.0313    0.0000 O   0  0  0  0  0  0  0  0  0  0  0  0
   -0.0000    0.6187    0.0000 C   0  0  0  0  0  0  0  0  0  0  0  0
    0.7145    1.0313    0.0000 C   0  0  0  0  0  0  0  0  0  0  0  0
  1  2  2  0      
  2  3  1  0      
  3  4  1  0      
  4  5  1  0      
  4  6  1  0      
  4  7  1  0      
  2  8  1  0      
  8  9  1  0      
  9 10  1  0      
 10 11  1  0      
 11 12  1  0      
 12 13  1  0      
 13 14  2  0      
 14 15  1  0      
 15 16  2  0      
 16 17  1  0      
 12 17  2  0      
 17 18  1  0      
 14 19  1  0      
 19 20  2  0      
 20 21  1  0      
 21 22  2  0      
 22 23  1  0      
 23 24  2  0      
 19 24  1  0      
 24 25  1  0      
 11 26  1  0      
 26 27  1  0      
  8 27  1  0      
M  END

>  <RackCode>
HYCPK72335

>  <Cat. No.>
HY-145446

>  <Product Name>
SGC-SMARCA-BRDVIII

>  <ROW>
M

>  <COLUMN>
16

>  <CAS No.>
1997319-84-2

>  <MWt>
371.43

>  <Target>
Epigenetic Reader Domain

>  <Saltdate>


>  <Smiles>
O=C(N1CCN(CC1)C2=C(N)N=NC(C3=CC=CC=C3O)=C2)OC(C)(C)C

>  <Solvent>
DMSO Solution

>  <Batch No.>
137402

>  <Quantity>
10mM  * 50uL

>  <Pathway>
Epigenetics

>  <Synonyms>


>  <Formula>
C19H25N5O3

>  <Research_Area>
Metabolic Disease

>  <Clinical_Information>
No Development Reported

>  <SUPPLIER>
MedChemExpress

$$$$
Untitled Document
  ChemDraw09281711042D

 28 31  0  0  0  0  0  0  0  0999 V2000
    0.6529    1.6500    0.0000 N   0  0  0  0  0  0  0  0  0  0  0  0
    1.3673    1.2375    0.0000 C   0  0  0  0  0  0  0  0  0  0  0  0
    1.3673    0.4125    0.0000 N   0  0  0  0  0  0  0  0  0  0  0  0
    0.6529   -0.0000    0.0000 C   0  0  0  0  0  0  0  0  0  0  0  0
   -0.0616    0.4125    0.0000 C   0  0  0  0  0  0  0  0  0  0  0  0
   -0.7761   -0.0000    0.0000 C   0  0  0  0  0  0  0  0  0  0  0  0
   -1.4906    0.4125    0.0000 C   0  0  0  0  0  0  0  0  0  0  0  0
   -1.4906    1.2375    0.0000 C   0  0  0  0  0  0  0  0  0  0  0  0
   -0.7761    1.6500    0.0000 C   0  0  0  0  0  0  0  0  0  0  0  0
   -0.0616    1.2375    0.0000 C   0  0  0  0  0  0  0  0  0  0  0  0
    2.0818    1.6500    0.0000 O   0  0  0  0  0  0  0  0  0  0  0  0
    2.0818   -0.0000    0.0000 C   0  0  0  0  0  0  0  0  0  0  0  0
    2.7963    0.4125    0.0000 C   0  0  0  0  0  0  0  0  0  0  0  0
    3.5107    0.8250    0.0000 C   0  0  0  0  0  0  0  0  0  0  0  0
    0.6529   -0.8250    0.0000 C   0  0  0  0  0  0  0  0  0  0  0  0
    1.3673   -1.2375    0.0000 C   0  0  0  0  0  0  0  0  0  0  0  0
    1.3673   -2.0625    0.0000 C   0  0  0  0  0  0  0  0  0  0  0  0
    0.6529   -2.4750    0.0000 C   0  0  0  0  0  0  0  0  0  0  0  0
   -0.0616   -2.0625    0.0000 C   0  0  0  0  0  0  0  0  0  0  0  0
   -0.0616   -1.2375    0.0000 C   0  0  0  0  0  0  0  0  0  0  0  0
    0.6529    2.4750    0.0000 C   0  0  0  0  0  0  0  0  0  0  0  0
   -3.0982   -0.9920    0.0000 O   0  0  0  0  0  0  0  0  0  0  0  0
   -3.5107   -0.2775    0.0000 N   0  0  0  0  0  0  0  0  0  0  0  0
   -2.9587    0.3356    0.0000 C   0  0  0  0  0  0  0  0  0  0  0  0
   -2.2050   -0.0000    0.0000 C   0  0  0  0  0  0  0  0  0  0  0  0
   -2.2913   -0.8205    0.0000 C   0  0  0  0  0  0  0  0  0  0  0  0
   -1.6782   -1.3725    0.0000 C   0  0  0  0  0  0  0  0  0  0  0  0
   -3.1302    1.1425    0.0000 C   0  0  0  0  0  0  0  0  0  0  0  0
  1  2  1  0      
  2  3  1  0      
  3  4  1  0      
  4  5  1  0      
  5  6  1  0      
  6  7  2  0      
  7  8  1  0      
  8  9  2  0      
  9 10  1  0      
  1 10  1  0      
  5 10  2  0      
  2 11  2  0      
 12 13  1  0      
 13 14  3  0      
  3 12  1  0      
 15 16  1  0      
 16 17  2  0      
 17 18  1  0      
 18 19  2  0      
 19 20  1  0      
 15 20  2  0      
  4 15  1  0      
  1 21  1  0      
 22 23  1  0      
 23 24  2  0      
 24 25  1  0      
 25 26  2  0      
 22 26  1  0      
 26 27  1  0      
 24 28  1  0      
  7 25  1  0      
M  END

>  <RackCode>
HYCPK72335

>  <Cat. No.>
HY-107442

>  <Product Name>
PROTAC BRD4-binding moiety 1

>  <ROW>
N

>  <COLUMN>
16

>  <CAS No.>
2101200-10-4

>  <MWt>
371.43

>  <Target>
Epigenetic Reader Domain; Ligands for Target Protein for PROTAC

>  <Saltdate>
Free Base

>  <Smiles>
O=C1N(C)C2=C(C=C(C3=C(C)ON=C3C)C=C2)C(C4=CC=CC=C4)N1CC#C

>  <Solvent>
DMSO Solution

>  <Batch No.>
281050

>  <Quantity>
10mM  * 50uL

>  <Pathway>
Epigenetics; PROTAC

>  <Synonyms>


>  <Formula>
C23H21N3O2

>  <Research_Area>
Cancer

>  <Clinical_Information>
No Development Reported

>  <SUPPLIER>
MedChemExpress

$$$$
Untitled Document
  ChemDraw05292202522D

 16 17  0  0  0  0  0  0  0  0999 V2000
    3.2065    0.2887    0.0000 O   0  0  0  0  0  0  0  0  0  0  0  0
    2.3860    0.2025    0.0000 C   0  0  0  0  0  0  0  0  0  0  0  0
    1.9735   -0.5120    0.0000 N   0  0  0  0  0  0  0  0  0  0  0  0
    1.1666   -0.3405    0.0000 C   0  0  0  0  0  0  0  0  0  0  0  0
    0.5535   -0.8925    0.0000 O   0  0  0  0  0  0  0  0  0  0  0  0
    1.8340    0.8156    0.0000 S   0  0  0  0  0  0  0  0  0  0  0  0
    1.0803    0.4800    0.0000 C   0  0  0  0  0  0  0  0  0  0  0  0
    0.3658    0.8925    0.0000 C   0  0  0  0  0  0  0  0  0  0  0  0
   -0.3486    0.4800    0.0000 C   0  0  0  0  0  0  0  0  0  0  0  0
   -0.3486   -0.3450    0.0000 C   0  0  0  0  0  0  0  0  0  0  0  0
   -1.0631   -0.7575    0.0000 C   0  0  0  0  0  0  0  0  0  0  0  0
   -1.7776   -0.3450    0.0000 C   0  0  0  0  0  0  0  0  0  0  0  0
   -2.4920   -0.7575    0.0000 O   0  0  0  0  0  0  0  0  0  0  0  0
   -3.2065   -0.3450    0.0000 C   0  0  0  0  0  0  0  0  0  0  0  0
   -1.7776    0.4800    0.0000 C   0  0  0  0  0  0  0  0  0  0  0  0
   -1.0631    0.8925    0.0000 C   0  0  0  0  0  0  0  0  0  0  0  0
  1  2  2  0      
  2  3  1  0      
  3  4  1  0      
  4  5  2  0      
  2  6  1  0      
  6  7  1  0      
  4  7  1  0      
  7  8  2  0      
  8  9  1  0      
  9 10  2  0      
 10 11  1  0      
 11 12  2  0      
 12 13  1  0      
 13 14  1  0      
 12 15  1  0      
 15 16  2  0      
  9 16  1  0      
M  END

>  <RackCode>
HYCPK72335

>  <Cat. No.>
HY-W412264

>  <Product Name>
Pim-1/2 kinase inhibitor 1

>  <ROW>
O

>  <COLUMN>
16

>  <CAS No.>
6320-51-0

>  <MWt>
235.26

>  <Target>
Pim

>  <Saltdate>


>  <Smiles>
O=C(NC1=O)SC1=CC2=CC=C(OC)C=C2

>  <Solvent>
DMSO Solution

>  <Batch No.>
217438

>  <Quantity>
10mM  * 50uL

>  <Pathway>
JAK/STAT Signaling

>  <Synonyms>


>  <Formula>
C11H9NO3S

>  <Research_Area>
Cancer

>  <Clinical_Information>
No Development Reported

>  <SUPPLIER>
MedChemExpress

$$$$
Untitled Document
  ChemDraw11061914132D

 25 27  0  0  0  0  0  0  0  0999 V2000
   -2.4762   -0.8250    0.0000 C   0  0  0  0  0  0  0  0  0  0  0  0
   -1.7617   -1.2375    0.0000 C   0  0  0  0  0  0  0  0  0  0  0  0
   -1.7617   -2.0625    0.0000 C   0  0  0  0  0  0  0  0  0  0  0  0
   -1.0473   -2.4750    0.0000 C   0  0  0  0  0  0  0  0  0  0  0  0
   -0.3328   -2.0625    0.0000 C   0  0  0  0  0  0  0  0  0  0  0  0
   -0.3328   -1.2375    0.0000 C   0  0  0  0  0  0  0  0  0  0  0  0
   -1.0473   -0.8250    0.0000 C   0  0  0  0  0  0  0  0  0  0  0  0
   -3.1907   -0.4125    0.0000 N   0  0  0  0  0  0  0  0  0  0  0  0
    0.3817   -0.8250    0.0000 O   0  0  0  0  0  0  0  0  0  0  0  0
    1.8808    1.4924    0.0000 C   0  0  0  0  0  0  0  0  0  0  0  0
    2.3657    0.8250    0.0000 C   0  0  0  0  0  0  0  0  0  0  0  0
    1.8808    0.1576    0.0000 C   0  0  0  0  0  0  0  0  0  0  0  0
    1.0961    0.4125    0.0000 C   0  0  0  0  0  0  0  0  0  0  0  0
    0.3817    0.0000    0.0000 C   0  0  0  0  0  0  0  0  0  0  0  0
   -0.3328    0.4125    0.0000 C   0  0  0  0  0  0  0  0  0  0  0  0
   -0.3328    1.2375    0.0000 C   0  0  0  0  0  0  0  0  0  0  0  0
    0.3817    1.6500    0.0000 C   0  0  0  0  0  0  0  0  0  0  0  0
    1.0961    1.2375    0.0000 C   0  0  0  0  0  0  0  0  0  0  0  0
    0.3817    2.4750    0.0000 S   0  0  0  0  0  0  0  0  0  0  0  0
    1.2067    2.4750    0.0000 O   0  0  0  0  0  0  0  0  0  0  0  0
   -0.4433    2.4750    0.0000 O   0  0  0  0  0  0  0  0  0  0  0  0
    0.3817    3.3000    0.0000 C   0  0  0  0  0  0  0  0  0  0  0  0
    2.1357    2.2771    0.0000 O   0  0  0  0  0  0  0  0  0  0  0  0
    3.1907    0.8250    0.0000 F   0  0  0  0  0  0  0  0  0  0  0  0
   -1.0473   -3.3000    0.0000 F   0  0  0  0  0  0  0  0  0  0  0  0
  1  2  1  0      
  2  3  1  0      
  3  4  2  0      
  4  5  1  0      
  5  6  2  0      
  6  7  1  0      
  2  7  2  0      
  1  8  3  0      
 10 11  1  0      
 11 12  1  0      
 12 13  1  0      
 13 14  1  0      
 14 15  2  0      
 15 16  1  0      
 16 17  2  0      
 17 18  1  0      
 10 18  1  0      
 13 18  2  0      
 19 20  2  0      
 19 21  2  0      
 19 22  1  0      
 17 19  1  0      
 10 23  1  0      
 11 24  1  0      
  9 14  1  0      
  6  9  1  0      
  4 25  1  0      
M  END

>  <RackCode>
HYCPK72335

>  <Cat. No.>
HY-130264

>  <Product Name>
HIF-2¦Á-IN-2

>  <ROW>
P

>  <COLUMN>
16

>  <CAS No.>
1672666-82-8

>  <MWt>
365.35

>  <Target>
HIF/HIF Prolyl-Hydroxylase

>  <Saltdate>
Free Base

>  <Smiles>
N#CC1=CC(OC2=CC=C(S(=O)(C)=O)C3=C2CC(F)C3O)=CC(F)=C1

>  <Solvent>
DMSO Solution

>  <Batch No.>
94736

>  <Quantity>
10mM  * 50uL

>  <Pathway>
Metabolic Enzyme/Protease

>  <Synonyms>


>  <Formula>
C17H13F2NO4S

>  <Research_Area>
Cancer

>  <Clinical_Information>
No Development Reported

>  <SUPPLIER>
MedChemExpress

$$$$
Untitled Document
  ChemDraw09262214102D

 22 24  0  0  0  0  0  0  0  0999 V2000
    2.8315   -1.4839    0.0000 N   0  0  0  0  0  0  0  0  0  0  0  0
    2.1170   -1.0714    0.0000 C   0  0  0  0  0  0  0  0  0  0  0  0
    2.1170   -0.2464    0.0000 O   0  0  0  0  0  0  0  0  0  0  0  0
    1.4025   -1.4839    0.0000 N   0  0  0  0  0  0  0  0  0  0  0  0
   -0.6176   -0.7939    0.0000 N   0  0  0  0  0  0  0  0  0  0  0  0
   -0.0656   -1.4070    0.0000 C   0  0  0  0  0  0  0  0  0  0  0  0
    0.6881   -1.0714    0.0000 C   0  0  0  0  0  0  0  0  0  0  0  0
    0.6018   -0.2510    0.0000 C   0  0  0  0  0  0  0  0  0  0  0  0
   -0.2051   -0.0794    0.0000 C   0  0  0  0  0  0  0  0  0  0  0  0
   -1.4381   -0.8801    0.0000 C   0  0  0  0  0  0  0  0  0  0  0  0
   -1.7737   -1.6338    0.0000 O   0  0  0  0  0  0  0  0  0  0  0  0
   -1.6681    0.5719    0.0000 N   0  0  0  0  0  0  0  0  0  0  0  0
   -2.3355    1.0568    0.0000 N   0  0  0  0  0  0  0  0  0  0  0  0
   -3.0030    0.5719    0.0000 C   0  0  0  0  0  0  0  0  0  0  0  0
   -2.7480   -0.2127    0.0000 C   0  0  0  0  0  0  0  0  0  0  0  0
   -1.9230   -0.2127    0.0000 C   0  0  0  0  0  0  0  0  0  0  0  0
   -3.7876    0.8269    0.0000 C   0  0  0  0  0  0  0  0  0  0  0  0
   -3.9591    1.6338    0.0000 C   0  0  0  0  0  0  0  0  0  0  0  0
   -4.3710    0.2435    0.0000 C   0  0  0  0  0  0  0  0  0  0  0  0
    3.5460   -1.0714    0.0000 C   0  0  0  0  0  0  0  0  0  0  0  0
    3.9585   -0.3570    0.0000 C   0  0  0  0  0  0  0  0  0  0  0  0
    4.3710   -1.0714    0.0000 C   0  0  0  0  0  0  0  0  0  0  0  0
  1  2  1  0      
  2  3  2  0      
  2  4  1  0      
  5  6  1  0      
  6  7  1  0      
  7  8  1  0      
  8  9  1  0      
  5  9  1  0      
 10 11  2  0      
 12 13  1  0      
 13 14  1  0      
 14 15  2  0      
 15 16  1  0      
 12 16  2  0      
 10 16  1  0      
 17 18  1  0      
 17 19  1  0      
 14 17  1  0      
  5 10  1  0      
  7  4  1  1      
 20 21  1  0      
 21 22  1  0      
 20 22  1  0      
  1 20  1  0      
M  END

>  <RackCode>
HYCPK72335

>  <Cat. No.>
HY-151483

>  <Product Name>
TK-129

>  <ROW>
A

>  <COLUMN>
17

>  <CAS No.>
3031476-73-7

>  <MWt>
305.38

>  <Target>
Histone Demethylase

>  <Saltdate>


>  <Smiles>
O=C(N[C@H]1CN(C(C2=NNC(C(C)C)=C2)=O)CC1)NC3CC3

>  <Solvent>
DMSO Solution

>  <Batch No.>
264055

>  <Quantity>
10mM  * 50uL

>  <Pathway>
Epigenetics

>  <Synonyms>


>  <Formula>
C15H23N5O2

>  <Research_Area>
Cardiovascular Disease

>  <Clinical_Information>
No Development Reported

>  <SUPPLIER>
MedChemExpress

$$$$
Untitled Document
  ChemDraw03312008432D

 34 37  0  0  0  0  0  0  0  0999 V2000
   -2.0730    2.1636    0.0000 N   0  0  0  0  0  0  0  0  0  0  0  0
   -1.2884    1.9086    0.0000 C   0  0  0  0  0  0  0  0  0  0  0  0
   -1.2884    1.0836    0.0000 C   0  0  0  0  0  0  0  0  0  0  0  0
   -2.0730    0.8287    0.0000 C   0  0  0  0  0  0  0  0  0  0  0  0
   -2.5579    1.4961    0.0000 C   0  0  0  0  0  0  0  0  0  0  0  0
   -0.6209    2.3935    0.0000 O   0  0  0  0  0  0  0  0  0  0  0  0
   -3.3829    1.4961    0.0000 O   0  0  0  0  0  0  0  0  0  0  0  0
   -2.3279   -1.2908    0.0000 N   0  0  0  0  0  0  0  0  0  0  0  0
   -1.8430   -0.6234    0.0000 C   0  0  0  0  0  0  0  0  0  0  0  0
   -2.3279    0.0441    0.0000 C   0  0  0  0  0  0  0  0  0  0  0  0
   -3.1125   -0.2109    0.0000 C   0  0  0  0  0  0  0  0  0  0  0  0
   -3.8270    0.2016    0.0000 C   0  0  0  0  0  0  0  0  0  0  0  0
   -4.5415   -0.2109    0.0000 C   0  0  0  0  0  0  0  0  0  0  0  0
   -4.5415   -1.0359    0.0000 C   0  0  0  0  0  0  0  0  0  0  0  0
   -3.8270   -1.4484    0.0000 C   0  0  0  0  0  0  0  0  0  0  0  0
   -3.1125   -1.0359    0.0000 C   0  0  0  0  0  0  0  0  0  0  0  0
   -2.0730   -2.0754    0.0000 C   0  0  0  0  0  0  0  0  0  0  0  0
    0.1637   -0.4812    0.0000 N   0  0  0  0  0  0  0  0  0  0  0  0
   -0.6209   -0.2263    0.0000 C   0  0  0  0  0  0  0  0  0  0  0  0
   -0.6209    0.5987    0.0000 C   0  0  0  0  0  0  0  0  0  0  0  0
    0.1637    0.8536    0.0000 C   0  0  0  0  0  0  0  0  0  0  0  0
    0.4993    1.6073    0.0000 C   0  0  0  0  0  0  0  0  0  0  0  0
    1.3197    1.6935    0.0000 C   0  0  0  0  0  0  0  0  0  0  0  0
    1.8047    1.0261    0.0000 C   0  0  0  0  0  0  0  0  0  0  0  0
    1.4691    0.2724    0.0000 C   0  0  0  0  0  0  0  0  0  0  0  0
    0.6486    0.1862    0.0000 C   0  0  0  0  0  0  0  0  0  0  0  0
    0.4186   -1.2659    0.0000 C   0  0  0  0  0  0  0  0  0  0  0  0
    1.2256   -1.4374    0.0000 C   0  0  0  0  0  0  0  0  0  0  0  0
    1.4806   -2.2220    0.0000 C   0  0  0  0  0  0  0  0  0  0  0  0
    2.2875   -2.3935    0.0000 N   0  0  0  0  0  0  0  0  0  0  0  0
    3.8270   -0.2062    0.0000 C   0  0  0  0  0  0  0  0  0  0  0  0
    3.1125   -0.6187    0.0000 C   0  0  0  0  0  0  0  0  0  0  0  0
    3.8270    0.6188    0.0000 O   0  0  0  0  0  0  0  0  0  0  0  0
    4.5415   -0.6187    0.0000 O   0  0  0  0  0  0  0  0  0  0  0  0
  1  2  1  0      
  2  3  1  0      
  3  4  2  0      
  4  5  1  0      
  1  5  1  0      
  2  6  2  0      
  5  7  2  0      
  8  9  1  0      
  9 10  2  0      
 10 11  1  0      
 11 12  1  0      
 12 13  2  0      
 13 14  1  0      
 14 15  2  0      
 15 16  1  0      
  8 16  1  0      
 11 16  2  0      
  8 17  1  0      
  4 10  1  0      
 18 19  1  0      
 19 20  2  0      
 20 21  1  0      
 21 22  1  0      
 22 23  2  0      
 23 24  1  0      
 24 25  2  0      
 25 26  1  0      
 18 26  1  0      
 21 26  2  0      
 27 28  1  0      
 28 29  1  0      
 29 30  1  0      
 18 27  1  0      
  3 20  1  0      
 31 32  1  0      
 31 33  2  0      
 31 34  1  0      
M  END

>  <RackCode>
HYCPK72335

>  <Cat. No.>
HY-129624A

>  <Product Name>
Bisindolylmaleimide VIII (acetate)

>  <ROW>
B

>  <COLUMN>
17

>  <CAS No.>
138516-31-1

>  <MWt>
458.51

>  <Target>
Apoptosis; PKC

>  <Saltdate>
Acetate

>  <Smiles>
O=C(C(C1=CN(CCCN)C2=C1C=CC=C2)=C3C4=CN(C)C5=C4C=CC=C5)NC3=O.CC(O)=O

>  <Solvent>
DMSO Solution

>  <Batch No.>
119335

>  <Quantity>
10mM  * 50uL

>  <Pathway>
Apoptosis; Epigenetics; TGF-beta/Smad

>  <Synonyms>
Ro 31-7549 (acetate); Bis VIII (acetate)

>  <Formula>
C26H26N4O4

>  <Research_Area>
Cancer; Inflammation/Immunology

>  <Clinical_Information>
No Development Reported

>  <SUPPLIER>
MedChemExpress

$$$$
Untitled Document
  ChemDraw09142215232D

 24 27  0  0  0  0  0  0  0  0999 V2000
    1.7578   -1.8046    0.0000 S   0  0  0  0  0  0  0  0  0  0  0  0
    1.2729   -1.1371    0.0000 C   0  0  0  0  0  0  0  0  0  0  0  0
    1.7578   -0.4697    0.0000 N   0  0  0  0  0  0  0  0  0  0  0  0
    2.5424   -0.7246    0.0000 C   0  0  0  0  0  0  0  0  0  0  0  0
    2.5424   -1.5496    0.0000 C   0  0  0  0  0  0  0  0  0  0  0  0
    3.2569   -0.3121    0.0000 C   0  0  0  0  0  0  0  0  0  0  0  0
    3.9713   -0.7246    0.0000 C   0  0  0  0  0  0  0  0  0  0  0  0
    3.9713   -1.5496    0.0000 C   0  0  0  0  0  0  0  0  0  0  0  0
    3.2569   -1.9621    0.0000 C   0  0  0  0  0  0  0  0  0  0  0  0
    0.4479   -1.1371    0.0000 N   0  0  0  0  0  0  0  0  0  0  0  0
    3.2569    0.5129    0.0000 O   0  0  0  0  0  0  0  0  0  0  0  0
    3.9713    0.9254    0.0000 C   0  0  0  0  0  0  0  0  0  0  0  0
   -0.7851   -0.3364    0.0000 O   0  0  0  0  0  0  0  0  0  0  0  0
    0.0354   -0.4227    0.0000 C   0  0  0  0  0  0  0  0  0  0  0  0
    0.3709    0.3310    0.0000 N   0  0  0  0  0  0  0  0  0  0  0  0
   -0.2422    0.8830    0.0000 N   0  0  0  0  0  0  0  0  0  0  0  0
   -0.9566    0.4705    0.0000 C   0  0  0  0  0  0  0  0  0  0  0  0
   -1.7103    0.8061    0.0000 C   0  0  0  0  0  0  0  0  0  0  0  0
   -2.3778    0.3212    0.0000 C   0  0  0  0  0  0  0  0  0  0  0  0
   -3.1314    0.6567    0.0000 C   0  0  0  0  0  0  0  0  0  0  0  0
   -3.2177    1.4772    0.0000 C   0  0  0  0  0  0  0  0  0  0  0  0
   -2.5502    1.9621    0.0000 C   0  0  0  0  0  0  0  0  0  0  0  0
   -1.7966    1.6266    0.0000 C   0  0  0  0  0  0  0  0  0  0  0  0
   -3.9713    1.8128    0.0000 F   0  0  0  0  0  0  0  0  0  0  0  0
  1  2  1  0      
  2  3  2  0      
  3  4  1  0      
  4  5  1  0      
  1  5  1  0      
  6  7  1  0      
  7  8  2  0      
  8  9  1  0      
  9  5  2  0      
  6  4  2  0      
  2 10  1  0      
 11 12  1  0      
  6 11  1  0      
 13 14  1  0      
 14 15  2  0      
 15 16  1  0      
 16 17  2  0      
 13 17  1  0      
 18 19  1  0      
 19 20  2  0      
 20 21  1  0      
 21 22  2  0      
 22 23  1  0      
 18 23  2  0      
 21 24  1  0      
 17 18  1  0      
 10 14  1  0      
M  END

>  <RackCode>
HYCPK72335

>  <Cat. No.>
HY-151344

>  <Product Name>
HIF-1/2¦Á-IN-2

>  <ROW>
C

>  <COLUMN>
17

>  <CAS No.>
862974-22-9

>  <MWt>
342.35

>  <Target>
HIF/HIF Prolyl-Hydroxylase

>  <Saltdate>


>  <Smiles>
COC1=C2N=C(NC3=NN=C(C4=CC=C(F)C=C4)O3)SC2=CC=C1

>  <Solvent>
DMSO Solution

>  <Batch No.>
364331

>  <Quantity>
10mM  * 50uL

>  <Pathway>
Metabolic Enzyme/Protease

>  <Synonyms>


>  <Formula>
C16H11FN4O2S

>  <Research_Area>
Cancer

>  <Clinical_Information>
No Development Reported

>  <SUPPLIER>
MedChemExpress

$$$$
Untitled Document
  ChemDraw02152214582D

 12 12  0  0  0  0  0  0  0  0999 V2000
    1.0717    0.4125    0.0000 C   0  0  0  0  0  0  0  0  0  0  0  0
    1.0717   -0.4125    0.0000 C   0  0  0  0  0  0  0  0  0  0  0  0
    1.7862   -0.8250    0.0000 C   0  0  0  0  0  0  0  0  0  0  0  0
    2.5006   -0.4125    0.0000 C   0  0  0  0  0  0  0  0  0  0  0  0
    2.5006    0.4125    0.0000 C   0  0  0  0  0  0  0  0  0  0  0  0
    1.7862    0.8250    0.0000 C   0  0  0  0  0  0  0  0  0  0  0  0
    0.3572   -0.8250    0.0000 C   0  0  0  0  0  0  0  0  0  0  0  0
   -0.3572   -0.4125    0.0000 C   0  0  0  0  0  0  0  0  0  0  0  0
   -1.0717   -0.8250    0.0000 C   0  0  0  0  0  0  0  0  0  0  0  0
   -1.7862   -0.4125    0.0000 C   0  0  0  0  0  0  0  0  0  0  0  0
   -2.5006   -0.8250    0.0000 C   0  0  0  0  0  0  0  0  0  0  0  0
   -1.7862    0.4092    0.0000 O   0  0  0  0  0  0  0  0  0  0  0  0
  1  2  2  0      
  2  3  1  0      
  3  4  2  0      
  4  5  1  0      
  5  6  2  0      
  6  1  1  0      
  2  7  1  0      
  7  8  1  0      
  8  9  1  0      
  9 10  1  0      
 10 11  1  0      
 10 12  2  0      
M  END

>  <RackCode>
HYCPK72335

>  <Cat. No.>
HY-145613

>  <Product Name>
5-Phenylpentan-2-one

>  <ROW>
D

>  <COLUMN>
17

>  <CAS No.>
2235-83-8

>  <MWt>
162.23

>  <Target>
HDAC

>  <Saltdate>


>  <Smiles>
CC(CCCC1=CC=CC=C1)=O

>  <Solvent>
DMSO Solution

>  <Batch No.>
217376

>  <Quantity>
10mM  * 50uL

>  <Pathway>
Cell Cycle/DNA Damage; Epigenetics

>  <Synonyms>


>  <Formula>
C11H14O

>  <Research_Area>
Metabolic Disease

>  <Clinical_Information>
No Development Reported

>  <SUPPLIER>
MedChemExpress

$$$$
Untitled Document
  ChemDraw03162015032D

 31 30  0  0  0  0  0  0  0  0999 V2000
   -3.0578    1.1472    0.0000 C   0  0  0  0  0  0  0  0  0  0  0  0
   -3.0578    0.3222    0.0000 C   0  0  0  0  0  0  0  0  0  0  0  0
   -2.3433   -0.0903    0.0000 C   0  0  0  0  0  0  0  0  0  0  0  0
   -1.6288    0.3222    0.0000 C   0  0  0  0  0  0  0  0  0  0  0  0
   -1.6288    1.1472    0.0000 C   0  0  0  0  0  0  0  0  0  0  0  0
   -2.3433    1.5597    0.0000 C   0  0  0  0  0  0  0  0  0  0  0  0
   -3.7723   -0.0903    0.0000 C   0  0  0  0  0  0  0  0  0  0  0  0
   -4.4867    0.3222    0.0000 N   0  0  0  0  0  0  0  0  0  0  0  0
   -2.3433    2.3847    0.0000 C   0  0  0  0  0  0  0  0  0  0  0  0
   -3.0578    2.7972    0.0000 N   0  0  0  0  0  0  0  0  0  0  0  0
   -0.9144    1.5597    0.0000 O   0  0  0  0  0  0  0  0  0  0  0  0
   -0.1999    1.1472    0.0000 C   0  0  0  0  0  0  0  0  0  0  0  0
   -0.9144   -0.0903    0.0000 O   0  0  0  0  0  0  0  0  0  0  0  0
   -0.1999    0.3222    0.0000 C   0  0  0  0  0  0  0  0  0  0  0  0
    0.5146   -0.0903    0.0000 C   0  0  0  0  0  0  0  0  0  0  0  0
    1.2290    0.3222    0.0000 C   0  0  0  0  0  0  0  0  0  0  0  0
    1.9435   -0.0903    0.0000 N   0  0  0  0  0  0  0  0  0  0  0  0
    2.0298   -0.9108    0.0000 C   0  0  0  0  0  0  0  0  0  0  0  0
    2.8367   -1.0823    0.0000 C   0  0  0  0  0  0  0  0  0  0  0  0
    3.2492   -0.3679    0.0000 C   0  0  0  0  0  0  0  0  0  0  0  0
    2.6972    0.2452    0.0000 C   0  0  0  0  0  0  0  0  0  0  0  0
    3.2492   -1.7968    0.0000 C   0  0  0  0  0  0  0  0  0  0  0  0
    4.0742   -1.7968    0.0000 C   0  0  0  0  0  0  0  0  0  0  0  0
    4.4867   -1.0823    0.0000 C   0  0  0  0  0  0  0  0  0  0  0  0
    4.0742   -0.3679    0.0000 C   0  0  0  0  0  0  0  0  0  0  0  0
   -1.1292   -1.2933    0.0000 H   0  0  0  0  0  0  0  0  0  0  0  0
   -0.3042   -1.2933    0.0000 Cl  0  0  0  0  0  0  0  0  0  0  0  0
   -1.1292   -2.0667    0.0000 H   0  0  0  0  0  0  0  0  0  0  0  0
   -0.3042   -2.0667    0.0000 Cl  0  0  0  0  0  0  0  0  0  0  0  0
   -1.1292   -2.7972    0.0000 H   0  0  0  0  0  0  0  0  0  0  0  0
   -0.3042   -2.7972    0.0000 Cl  0  0  0  0  0  0  0  0  0  0  0  0
  1  2  2  0      
  2  3  1  0      
  3  4  2  0      
  4  5  1  0      
  5  6  2  0      
  6  1  1  0      
  2  7  1  0      
  7  8  1  0      
  6  9  1  0      
  9 10  1  0      
  5 11  1  0      
 11 12  1  0      
  4 13  1  0      
 13 14  1  0      
 14 15  1  0      
 15 16  1  0      
 16 17  1  0      
 17 18  1  0      
 18 19  1  0      
 19 20  2  0      
 20 21  1  0      
 21 17  1  0      
 19 22  1  0      
 22 23  2  0      
 23 24  1  0      
 24 25  2  0      
 25 20  1  0      
 26 27  1  0      
 28 29  1  0      
 30 31  1  0      
M  END

>  <RackCode>
HYCPK72335

>  <Cat. No.>
HY-125837A

>  <Product Name>
MS31 (trihydrochloride)

>  <ROW>
E

>  <COLUMN>
17

>  <CAS No.>
2748239-18-9

>  <MWt>
450.83

>  <Target>
Epigenetic Reader Domain

>  <Saltdate>
Hydrochloride

>  <Smiles>
NCC1=CC(CN)=C(OC)C(OCCCN2CC(C=CC=C3)=C3C2)=C1.[H]Cl.[H]Cl.[H]Cl

>  <Solvent>
DMSO Solution

>  <Batch No.>
61458

>  <Quantity>
10mM  * 50uL

>  <Pathway>
Epigenetics

>  <Synonyms>


>  <Formula>
C20H30Cl3N3O2

>  <Research_Area>
Cancer

>  <Clinical_Information>
No Development Reported

>  <SUPPLIER>
MedChemExpress

$$$$
Untitled Document
  ChemDraw08312312452D

 22 25  0  0  0  0  0  0  0  0999 V2000
    2.2937    0.7761    0.0000 O   0  0  0  0  0  0  0  0  0  0  0  0
    1.4687    0.7761    0.0000 C   0  0  0  0  0  0  0  0  0  0  0  0
    0.9838    1.4436    0.0000 N   0  0  0  0  0  0  0  0  0  0  0  0
    0.1991    1.1886    0.0000 C   0  0  0  0  0  0  0  0  0  0  0  0
   -0.5153    1.6011    0.0000 C   0  0  0  0  0  0  0  0  0  0  0  0
   -1.2298    1.1886    0.0000 C   0  0  0  0  0  0  0  0  0  0  0  0
   -1.2298    0.3636    0.0000 C   0  0  0  0  0  0  0  0  0  0  0  0
   -0.5153   -0.0489    0.0000 C   0  0  0  0  0  0  0  0  0  0  0  0
    0.1991    0.3636    0.0000 C   0  0  0  0  0  0  0  0  0  0  0  0
    0.9838    0.1087    0.0000 C   0  0  0  0  0  0  0  0  0  0  0  0
    1.2387   -0.6759    0.0000 C   0  0  0  0  0  0  0  0  0  0  0  0
    2.0457   -0.8475    0.0000 C   0  0  0  0  0  0  0  0  0  0  0  0
    2.6588   -0.2954    0.0000 C   0  0  0  0  0  0  0  0  0  0  0  0
    3.3732   -0.7079    0.0000 C   0  0  0  0  0  0  0  0  0  0  0  0
    3.2017   -1.5149    0.0000 C   0  0  0  0  0  0  0  0  0  0  0  0
    2.3812   -1.6011    0.0000 N   0  0  0  0  0  0  0  0  0  0  0  0
   -1.9443   -0.0489    0.0000 C   0  0  0  0  0  0  0  0  0  0  0  0
   -1.9443   -0.8739    0.0000 C   0  0  0  0  0  0  0  0  0  0  0  0
   -2.6588   -1.2864    0.0000 N   0  0  0  0  0  0  0  0  0  0  0  0
   -3.3732   -0.8739    0.0000 C   0  0  0  0  0  0  0  0  0  0  0  0
   -3.3732   -0.0489    0.0000 C   0  0  0  0  0  0  0  0  0  0  0  0
   -2.6588    0.3636    0.0000 C   0  0  0  0  0  0  0  0  0  0  0  0
  1  2  2  0      
  2  3  1  0      
  3  4  1  0      
  4  5  2  0      
  5  6  1  0      
  6  7  2  0      
  7  8  1  0      
  8  9  2  0      
  4  9  1  0      
  9 10  1  0      
  2 10  1  0      
 10 11  2  0      
 11 12  1  0      
 12 13  2  0      
 13 14  1  0      
 14 15  2  0      
 15 16  1  0      
 12 16  1  0      
  7 17  1  0      
 17 18  2  0      
 18 19  1  0      
 19 20  2  0      
 20 21  1  0      
 21 22  2  0      
 17 22  1  0      
M  END

>  <RackCode>
HYCPK72335

>  <Cat. No.>
HY-155951

>  <Product Name>
JAK3-IN-14

>  <ROW>
F

>  <COLUMN>
17

>  <CAS No.>
454234-24-3

>  <MWt>
287.32

>  <Target>
JAK

>  <Saltdate>


>  <Smiles>
O=C1NC2=CC=C(C3=CN=CC=C3)C=C2/C1=C/C4=CC=CN4

>  <Solvent>
DMSO Solution

>  <Batch No.>
308431

>  <Quantity>
10mM  * 50uL

>  <Pathway>
Epigenetics; JAK/STAT Signaling; Protein Tyrosine Kinase/RTK; Stem Cell/Wnt

>  <Synonyms>


>  <Formula>
C18H13N3O

>  <Research_Area>
Cancer

>  <Clinical_Information>
No Development Reported

>  <SUPPLIER>
MedChemExpress

$$$$
Untitled Document
  ChemDraw09072010332D

 29 29  0  0  0  0  0  0  0  0999 V2000
   -0.7231    1.7188    0.0000 C   0  0  0  0  0  0  0  0  0  0  0  0
   -0.7231    0.8938    0.0000 C   0  0  0  0  0  0  0  0  0  0  0  0
   -1.4376    0.4813    0.0000 C   0  0  0  0  0  0  0  0  0  0  0  0
   -2.1520    0.8938    0.0000 C   0  0  0  0  0  0  0  0  0  0  0  0
   -2.1520    1.7188    0.0000 C   0  0  0  0  0  0  0  0  0  0  0  0
   -1.4376    2.1313    0.0000 C   0  0  0  0  0  0  0  0  0  0  0  0
   -0.0086    2.1313    0.0000 O   0  0  0  0  0  0  0  0  0  0  0  0
   -4.1721    0.2037    0.0000 N   0  0  0  0  0  0  0  0  0  0  0  0
   -3.7596   -0.5108    0.0000 N   0  0  0  0  0  0  0  0  0  0  0  0
   -2.9526   -0.3392    0.0000 C   0  0  0  0  0  0  0  0  0  0  0  0
   -2.8664    0.4813    0.0000 C   0  0  0  0  0  0  0  0  0  0  0  0
   -3.6201    0.8168    0.0000 C   0  0  0  0  0  0  0  0  0  0  0  0
   -4.9926    0.2899    0.0000 C   0  0  0  0  0  0  0  0  0  0  0  0
   -0.0086    0.4813    0.0000 C   0  0  0  0  0  0  0  0  0  0  0  0
    0.7059    0.8938    0.0000 N   0  0  0  0  0  0  0  0  0  0  0  0
    1.4203    0.4813    0.0000 C   0  0  0  0  0  0  0  0  0  0  0  0
    1.4203   -0.3437    0.0000 C   0  0  0  0  0  0  0  0  0  0  0  0
    0.7059   -0.7562    0.0000 C   0  0  0  0  0  0  0  0  0  0  0  0
   -0.0086   -0.3437    0.0000 N   0  0  0  0  0  0  0  0  0  0  0  0
    2.1348    0.8938    0.0000 N   0  0  0  0  0  0  0  0  0  0  0  0
    2.8492    0.4813    0.0000 C   0  0  0  0  0  0  0  0  0  0  0  0
    3.5636    0.8938    0.0000 C   0  0  0  0  0  0  0  0  0  0  0  0
    4.2781    0.4813    0.0000 C   0  0  0  0  0  0  0  0  0  0  0  0
    4.9926    0.8938    0.0000 C   0  0  0  0  0  0  0  0  0  0  0  0
    3.5636    1.7188    0.0000 N   0  0  0  0  0  0  0  0  0  0  0  0
   -2.0886   -2.0797    0.0000 H   0  0  0  0  0  0  0  0  0  0  0  0
   -1.2636   -2.0797    0.0000 Cl  0  0  0  0  0  0  0  0  0  0  0  0
    0.6614   -2.1313    0.0000 H   0  0  0  0  0  0  0  0  0  0  0  0
    1.4864   -2.1313    0.0000 Cl  0  0  0  0  0  0  0  0  0  0  0  0
  1  2  1  0      
  2  3  2  0      
  3  4  1  0      
  4  5  2  0      
  5  6  1  0      
  1  6  2  0      
  1  7  1  0      
  8  9  1  0      
  9 10  2  0      
 10 11  1  0      
 11 12  2  0      
  8 12  1  0      
  8 13  1  0      
  4 11  1  0      
 14 15  1  0      
 15 16  2  0      
 16 17  1  0      
 17 18  2  0      
 18 19  1  0      
 14 19  2  0      
 21 22  1  0      
 22 23  1  0      
 23 24  1  0      
 22 25  1  6      
 20 21  1  0      
 16 20  1  0      
  2 14  1  0      
 26 27  1  0      
 28 29  1  0      
M  END

>  <RackCode>
HYCPK72335

>  <Cat. No.>
HY-15698A

>  <Product Name>
CRT0066101 (dihydrochloride)

>  <ROW>
G

>  <COLUMN>
17

>  <CAS No.>
1883545-60-5

>  <MWt>
411.33

>  <Target>
Apoptosis; Pim; PKD

>  <Saltdate>
Hydrochloride

>  <Smiles>
OC1=CC=C(C2=CN(C)N=C2)C=C1C3=NC=CC(NC[C@H](N)CC)=N3.[H]Cl.[H]Cl

>  <Solvent>
DMSO Solution

>  <Batch No.>
317053

>  <Quantity>
10mM  * 50uL

>  <Pathway>
Apoptosis; JAK/STAT Signaling

>  <Synonyms>


>  <Formula>
C18H24Cl2N6O

>  <Research_Area>
Cancer; Inflammation/Immunology

>  <Clinical_Information>
No Development Reported

>  <SUPPLIER>
MedChemExpress

$$$$
Untitled Document
  ChemDraw01032010122D

 25 29  0  0  0  0  0  0  0  0999 V2000
   -0.7046    1.6910    0.0000 N   0  0  0  0  0  0  0  0  0  0  0  0
    0.0801    1.4360    0.0000 C   0  0  0  0  0  0  0  0  0  0  0  0
    0.0801    0.6110    0.0000 C   0  0  0  0  0  0  0  0  0  0  0  0
   -0.7046    0.3561    0.0000 C   0  0  0  0  0  0  0  0  0  0  0  0
   -1.1895    1.0235    0.0000 C   0  0  0  0  0  0  0  0  0  0  0  0
    0.7475    1.9210    0.0000 O   0  0  0  0  0  0  0  0  0  0  0  0
   -2.0145    1.0235    0.0000 O   0  0  0  0  0  0  0  0  0  0  0  0
   -0.9595   -1.7634    0.0000 N   0  0  0  0  0  0  0  0  0  0  0  0
   -0.4746   -1.0960    0.0000 C   0  0  0  0  0  0  0  0  0  0  0  0
   -0.9595   -0.4285    0.0000 C   0  0  0  0  0  0  0  0  0  0  0  0
   -1.7441   -0.6835    0.0000 C   0  0  0  0  0  0  0  0  0  0  0  0
   -2.4586   -0.2710    0.0000 C   0  0  0  0  0  0  0  0  0  0  0  0
   -3.1731   -0.6835    0.0000 C   0  0  0  0  0  0  0  0  0  0  0  0
   -3.1731   -1.5085    0.0000 C   0  0  0  0  0  0  0  0  0  0  0  0
   -2.4586   -1.9210    0.0000 C   0  0  0  0  0  0  0  0  0  0  0  0
   -1.7441   -1.5085    0.0000 C   0  0  0  0  0  0  0  0  0  0  0  0
    1.5321   -0.9538    0.0000 N   0  0  0  0  0  0  0  0  0  0  0  0
    0.7475   -0.6989    0.0000 C   0  0  0  0  0  0  0  0  0  0  0  0
    0.7475    0.1261    0.0000 C   0  0  0  0  0  0  0  0  0  0  0  0
    1.5321    0.3811    0.0000 C   0  0  0  0  0  0  0  0  0  0  0  0
    1.8677    1.1347    0.0000 C   0  0  0  0  0  0  0  0  0  0  0  0
    2.6882    1.2210    0.0000 C   0  0  0  0  0  0  0  0  0  0  0  0
    3.1731    0.5535    0.0000 C   0  0  0  0  0  0  0  0  0  0  0  0
    2.8375   -0.2001    0.0000 C   0  0  0  0  0  0  0  0  0  0  0  0
    2.0170   -0.2864    0.0000 C   0  0  0  0  0  0  0  0  0  0  0  0
  1  2  1  0      
  2  3  1  0      
  3  4  2  0      
  4  5  1  0      
  1  5  1  0      
  2  6  2  0      
  5  7  2  0      
  8  9  1  0      
  9 10  2  0      
 10 11  1  0      
 11 12  1  0      
 12 13  2  0      
 13 14  1  0      
 14 15  2  0      
 15 16  1  0      
  8 16  1  0      
 11 16  2  0      
  4 10  1  0      
 17 18  1  0      
 18 19  2  0      
 19 20  1  0      
 20 21  1  0      
 21 22  2  0      
 22 23  1  0      
 23 24  2  0      
 24 25  1  0      
 17 25  1  0      
 20 25  2  0      
  3 19  1  0      
M  END

>  <RackCode>
HYCPK72335

>  <Cat. No.>
HY-108254

>  <Product Name>
Bisindolylmaleimide IV

>  <ROW>
H

>  <COLUMN>
17

>  <CAS No.>
119139-23-0

>  <MWt>
327.34

>  <Target>
CMV; PKC

>  <Saltdate>


>  <Smiles>
O=C(C(C1=CNC2=C1C=CC=C2)=C3C4=CNC5=C4C=CC=C5)NC3=O

>  <Solvent>
DMSO Solution

>  <Batch No.>
255363

>  <Quantity>
10mM  * 50uL

>  <Pathway>
Anti-infection; Epigenetics; TGF-beta/Smad

>  <Synonyms>
Arcyriarubin A

>  <Formula>
C20H13N3O2

>  <Research_Area>
Infection

>  <Clinical_Information>
No Development Reported

>  <SUPPLIER>
MedChemExpress

$$$$
Untitled Document
  ChemDraw10271714272D

 26 29  0  0  0  0  0  0  0  0999 V2000
   -0.5576   -1.9535    0.0000 O   0  0  0  0  0  0  0  0  0  0  0  0
   -0.0726   -1.2829    0.0000 C   0  0  0  0  0  0  0  0  0  0  0  0
   -0.3100   -0.5176    0.0000 C   0  0  0  0  0  0  0  0  0  0  0  0
   -1.0261   -0.1028    0.0000 N   0  0  0  0  0  0  0  0  0  0  0  0
   -2.4542   -0.1028    0.0000 C   0  0  0  0  0  0  0  0  0  0  0  0
   -2.4542    0.7207    0.0000 C   0  0  0  0  0  0  0  0  0  0  0  0
   -1.7381    1.1375    0.0000 C   0  0  0  0  0  0  0  0  0  0  0  0
   -1.0261    0.7207    0.0000 C   0  0  0  0  0  0  0  0  0  0  0  0
   -3.1661    1.1375    0.0000 C   0  0  0  0  0  0  0  0  0  0  0  0
   -3.1661    1.9611    0.0000 N   0  0  0  0  0  0  0  0  0  0  0  0
   -3.8822    0.7207    0.0000 N   0  0  0  0  0  0  0  0  0  0  0  0
   -3.8822   -0.1028    0.0000 C   0  0  0  0  0  0  0  0  0  0  0  0
   -3.1661   -0.5176    0.0000 N   0  0  0  0  0  0  0  0  0  0  0  0
    0.3712   -0.0117    0.0000 O   0  0  0  0  0  0  0  0  0  0  0  0
    1.0240   -0.5176    0.0000 C   0  0  0  0  0  0  0  0  0  0  0  0
    0.7579   -1.2829    0.0000 C   0  0  0  0  0  0  0  0  0  0  0  0
    1.2306   -1.9611    0.0000 O   0  0  0  0  0  0  0  0  0  0  0  0
    1.7381   -0.1028    0.0000 C   0  0  0  0  0  0  0  0  0  0  0  0
    1.7381    0.7207    0.0000 O   0  0  0  0  0  0  0  0  0  0  0  0
    2.4542   -0.5176    0.0000 C   0  0  0  0  0  0  0  0  0  0  0  0
    2.4542   -1.3412    0.0000 C   0  0  0  0  0  0  0  0  0  0  0  0
    3.1682   -1.7500    0.0000 C   0  0  0  0  0  0  0  0  0  0  0  0
    3.8822   -1.3412    0.0000 C   0  0  0  0  0  0  0  0  0  0  0  0
    3.8822   -0.5176    0.0000 C   0  0  0  0  0  0  0  0  0  0  0  0
    3.1682   -0.1028    0.0000 C   0  0  0  0  0  0  0  0  0  0  0  0
    1.6562   -1.0466    0.0000 H   0  0  0  0  0  0  0  0  0  0  0  0
  2  1  1  1      
  2  3  1  0      
  2 16  1  0      
  3  4  1  6      
  3 14  1  0      
  4  5  1  0      
  4  8  1  0      
  5  6  1  0      
  5 13  2  0      
  6  7  1  0      
  6  9  2  0      
  8  7  2  0      
  9 10  1  0      
  9 11  1  0      
 12 11  2  0      
 13 12  1  0      
 14 15  1  0      
 16 15  1  0      
 15 18  1  0      
 15 26  1  1      
 16 17  1  1      
 18 19  1  6      
 18 20  1  0      
 20 21  2  0      
 20 25  1  0      
 21 22  1  0      
 22 23  2  0      
 24 23  1  0      
 25 24  2  0      
M  END

>  <RackCode>
HYCPK72335

>  <Cat. No.>
HY-107777

>  <Product Name>
LLY-283

>  <ROW>
I

>  <COLUMN>
17

>  <CAS No.>
2040291-27-6

>  <MWt>
342.35

>  <Target>
Histone Methyltransferase

>  <Saltdate>
Free Base

>  <Smiles>
O[C@H]1[C@@H](O[C@@]([C@@H](C2=CC=CC=C2)O)([H])[C@H]1O)N3C4=NC=NC(N)=C4C=C3

>  <Solvent>
DMSO Solution

>  <Batch No.>
97821

>  <Quantity>
10mM  * 50uL

>  <Pathway>
Epigenetics

>  <Synonyms>


>  <Formula>
C17H18N4O4

>  <Research_Area>
Cancer

>  <Clinical_Information>
No Development Reported

>  <SUPPLIER>
MedChemExpress

$$$$
Untitled Document
  ChemDraw01161813122D

 31 35  0  0  0  0  0  0  0  0999 V2000
   -3.1723    0.5283    0.0000 C   0  0  0  0  0  0  0  0  0  0  0  0
   -3.1723   -0.2967    0.0000 N   0  0  0  0  0  0  0  0  0  0  0  0
   -2.4578   -0.7092    0.0000 C   0  0  0  0  0  0  0  0  0  0  0  0
   -1.7433   -0.2967    0.0000 C   0  0  0  0  0  0  0  0  0  0  0  0
   -1.7433    0.5283    0.0000 C   0  0  0  0  0  0  0  0  0  0  0  0
   -2.4578    0.9408    0.0000 C   0  0  0  0  0  0  0  0  0  0  0  0
   -0.9587   -0.5516    0.0000 C   0  0  0  0  0  0  0  0  0  0  0  0
   -0.4738    0.1158    0.0000 N   0  0  0  0  0  0  0  0  0  0  0  0
   -0.9587    0.7833    0.0000 N   0  0  0  0  0  0  0  0  0  0  0  0
   -0.7047   -1.3335    0.0000 N   0  0  0  0  0  0  0  0  0  0  0  0
    0.0995   -1.5044    0.0000 C   0  0  0  0  0  0  0  0  0  0  0  0
   -3.8843   -0.7077    0.0000 C   0  0  0  0  0  0  0  0  0  0  0  0
   -4.5963   -0.2967    0.0000 C   0  0  0  0  0  0  0  0  0  0  0  0
   -3.8843   -1.5299    0.0000 O   0  0  0  0  0  0  0  0  0  0  0  0
    0.3545   -2.2891    0.0000 C   0  0  0  0  0  0  0  0  0  0  0  0
    1.1614   -2.4606    0.0000 C   0  0  0  0  0  0  0  0  0  0  0  0
    1.7135   -1.8475    0.0000 C   0  0  0  0  0  0  0  0  0  0  0  0
    1.4585   -1.0629    0.0000 C   0  0  0  0  0  0  0  0  0  0  0  0
    0.6515   -0.8914    0.0000 C   0  0  0  0  0  0  0  0  0  0  0  0
   -0.1957   -2.9000    0.0000 F   0  0  0  0  0  0  0  0  0  0  0  0
    2.5176   -2.0184    0.0000 C   0  0  0  0  0  0  0  0  0  0  0  0
    2.8532   -2.7721    0.0000 C   0  0  0  0  0  0  0  0  0  0  0  0
    3.6737   -2.6859    0.0000 N   0  0  0  0  0  0  0  0  0  0  0  0
    3.8452   -1.8789    0.0000 N   0  0  0  0  0  0  0  0  0  0  0  0
    3.1307   -1.4664    0.0000 C   0  0  0  0  0  0  0  0  0  0  0  0
    4.5963   -1.5445    0.0000 C   0  0  0  0  0  0  0  0  0  0  0  0
   -0.7047    1.5652    0.0000 C   0  0  0  0  0  0  0  0  0  0  0  0
    0.0800    1.8201    0.0000 C   0  0  0  0  0  0  0  0  0  0  0  0
    0.0800    2.6451    0.0000 O   0  0  0  0  0  0  0  0  0  0  0  0
   -0.7047    2.9000    0.0000 C   0  0  0  0  0  0  0  0  0  0  0  0
   -1.1896    2.2326    0.0000 C   0  0  0  0  0  0  0  0  0  0  0  0
  1  2  1  0      
  2  3  1  0      
  3  4  1  0      
  4  5  2  0      
  5  6  1  0      
  6  1  1  0      
  4  7  1  0      
  7  8  2  0      
  8  9  1  0      
  9  5  1  0      
  7 10  1  0      
 10 11  1  0      
  2 12  1  0      
 12 13  1  0      
 12 14  2  0      
 11 15  2  0      
 15 16  1  0      
 16 17  2  0      
 17 18  1  0      
 18 19  2  0      
 19 11  1  0      
 15 20  1  0      
 17 21  1  0      
 21 22  1  0      
 22 23  2  0      
 23 24  1  0      
 24 25  1  0      
 25 21  2  0      
 24 26  1  0      
 27  9  1  1      
 27 28  1  0      
 28 29  1  0      
 29 30  1  0      
 30 31  1  0      
 31 27  1  0      
M  END

>  <RackCode>
HYCPK72335

>  <Cat. No.>
HY-100726

>  <Product Name>
GNE-272

>  <ROW>
J

>  <COLUMN>
17

>  <CAS No.>
1936428-93-1

>  <MWt>
424.47

>  <Target>
Epigenetic Reader Domain; Histone Acetyltransferase

>  <Saltdate>
Free Base

>  <Smiles>
CC(N1CCC2=C(C(NC3=C(F)C=C(C4=CN(C)N=C4)C=C3)=NN2[C@@H]5COCC5)C1)=O

>  <Solvent>
DMSO Solution

>  <Batch No.>
26317

>  <Quantity>
10mM  * 50uL

>  <Pathway>
Epigenetics

>  <Synonyms>


>  <Formula>
C22H25FN6O2

>  <Research_Area>
Cancer

>  <Clinical_Information>
No Development Reported

>  <SUPPLIER>
MedChemExpress

$$$$
Untitled Document
  ChemDraw02211712452D

 40 45  0  0  0  0  0  0  0  0999 V2000
   -2.6947    4.0485    0.0000 C   0  0  0  0  0  0  0  0  0  0  0  0
   -2.6947    3.2235    0.0000 N   0  0  0  0  0  0  0  0  0  0  0  0
   -1.9802    2.8111    0.0000 C   0  0  0  0  0  0  0  0  0  0  0  0
   -1.2657    3.2235    0.0000 C   0  0  0  0  0  0  0  0  0  0  0  0
   -1.2657    4.0485    0.0000 C   0  0  0  0  0  0  0  0  0  0  0  0
   -1.9802    4.4610    0.0000 N   0  0  0  0  0  0  0  0  0  0  0  0
   -1.9802    1.9861    0.0000 N   0  0  0  0  0  0  0  0  0  0  0  0
   -1.2657    1.5736    0.0000 C   0  0  0  0  0  0  0  0  0  0  0  0
   -1.2657    0.7486    0.0000 C   0  0  0  0  0  0  0  0  0  0  0  0
   -0.5513    0.3361    0.0000 C   0  0  0  0  0  0  0  0  0  0  0  0
    0.1632    0.7486    0.0000 N   0  0  0  0  0  0  0  0  0  0  0  0
    0.1632    1.5736    0.0000 C   0  0  0  0  0  0  0  0  0  0  0  0
   -0.5513    1.9861    0.0000 C   0  0  0  0  0  0  0  0  0  0  0  0
    0.8777    0.3361    0.0000 C   0  0  0  0  0  0  0  0  0  0  0  0
    0.8777   -0.4889    0.0000 C   0  0  0  0  0  0  0  0  0  0  0  0
    0.1632   -0.9014    0.0000 C   0  0  0  0  0  0  0  0  0  0  0  0
    0.1632   -1.7264    0.0000 C   0  0  0  0  0  0  0  0  0  0  0  0
    0.8777   -2.1389    0.0000 C   0  0  0  0  0  0  0  0  0  0  0  0
    1.5921   -1.7264    0.0000 C   0  0  0  0  0  0  0  0  0  0  0  0
    1.5921   -0.9014    0.0000 C   0  0  0  0  0  0  0  0  0  0  0  0
    1.0492   -2.9458    0.0000 N   0  0  0  0  0  0  0  0  0  0  0  0
    1.8697   -3.0320    0.0000 C   0  0  0  0  0  0  0  0  0  0  0  0
    2.2052   -2.2785    0.0000 C   0  0  0  0  0  0  0  0  0  0  0  0
   -0.4811    2.9685    0.0000 C   0  0  0  0  0  0  0  0  0  0  0  0
    0.0038    3.6360    0.0000 C   0  0  0  0  0  0  0  0  0  0  0  0
   -0.4811    4.3034    0.0000 S   0  0  0  0  0  0  0  0  0  0  0  0
    0.8288    3.6360    0.0000 C   0  0  0  0  0  0  0  0  0  0  0  0
    1.2413    2.9215    0.0000 C   0  0  0  0  0  0  0  0  0  0  0  0
    2.0663    2.9215    0.0000 F   0  0  0  0  0  0  0  0  0  0  0  0
    0.8288    2.2071    0.0000 F   0  0  0  0  0  0  0  0  0  0  0  0
    1.6538    2.2071    0.0000 F   0  0  0  0  0  0  0  0  0  0  0  0
    2.2822   -3.7465    0.0000 C   0  0  0  0  0  0  0  0  0  0  0  0
    2.6947   -4.4610    0.0000 N   0  0  0  0  0  0  0  0  0  0  0  0
    0.4971   -3.5589    0.0000 C   0  0  0  0  0  0  0  0  0  0  0  0
   -0.3098   -3.3874    0.0000 C   0  0  0  0  0  0  0  0  0  0  0  0
   -0.6454   -2.6337    0.0000 C   0  0  0  0  0  0  0  0  0  0  0  0
   -1.4659   -2.7200    0.0000 N   0  0  0  0  0  0  0  0  0  0  0  0
   -1.6374   -3.5270    0.0000 N   0  0  0  0  0  0  0  0  0  0  0  0
   -0.9229   -3.9395    0.0000 C   0  0  0  0  0  0  0  0  0  0  0  0
    2.3066   -0.4889    0.0000 C   0  0  0  0  0  0  0  0  0  0  0  0
  1  2  1  0      
  2  3  2  0      
  3  4  1  0      
  4  5  2  0      
  5  6  1  0      
  6  1  2  0      
  3  7  1  0      
  7  8  1  0      
  8  9  1  0      
  9 10  1  0      
 10 11  1  0      
 11 12  1  0      
 12 13  1  0      
 13  8  1  0      
 11 14  1  0      
 14 15  1  0      
 15 16  2  0      
 16 17  1  0      
 17 18  2  0      
 18 19  1  0      
 19 20  2  0      
 20 15  1  0      
 18 21  1  0      
 21 22  1  0      
 22 23  2  0      
 23 19  1  0      
  4 24  1  0      
 24 25  2  0      
 25 26  1  0      
 26  5  1  0      
 25 27  1  0      
 27 28  1  0      
 22 32  1  0      
 28 29  1  0      
 28 30  1  0      
 28 31  1  0      
 32 33  3  0      
 21 34  1  0      
 34 35  1  0      
 35 36  1  0      
 36 37  2  0      
 37 38  1  0      
 38 39  1  0      
 39 35  2  0      
 20 40  1  0      
M  END

>  <RackCode>
HYCPK72335

>  <Cat. No.>
HY-16925

>  <Product Name>
MI-503

>  <ROW>
K

>  <COLUMN>
17

>  <CAS No.>
1857417-13-0

>  <MWt>
564.63

>  <Target>
Epigenetic Reader Domain

>  <Saltdate>
Free Base

>  <Smiles>
FC(F)(F)CC(S1)=CC2=C1N=CN=C2NC3CCN(CC4=CC=C(N(CC5=CNN=C5)C(C#N)=C6)C6=C4C)CC3

>  <Solvent>
DMSO Solution

>  <Batch No.>
47483

>  <Quantity>
10mM  * 50uL

>  <Pathway>
Epigenetics

>  <Synonyms>


>  <Formula>
C28H27F3N8S

>  <Research_Area>
Cancer

>  <Clinical_Information>
No Development Reported

>  <SUPPLIER>
MedChemExpress

$$$$
Untitled Document
  ChemDraw08282010392D

 22 24  0  0  0  0  0  0  0  0999 V2000
   -1.0717    2.4749    0.0000 C   0  0  0  0  0  0  0  0  0  0  0  0
   -1.0717    1.6500    0.0000 C   0  0  0  0  0  0  0  0  0  0  0  0
   -0.3572    1.2375    0.0000 C   0  0  0  0  0  0  0  0  0  0  0  0
   -0.3572    0.4125    0.0000 C   0  0  0  0  0  0  0  0  0  0  0  0
   -1.0717    0.0000    0.0000 C   0  0  0  0  0  0  0  0  0  0  0  0
   -1.7861    0.4125    0.0000 C   0  0  0  0  0  0  0  0  0  0  0  0
   -1.7861    1.2375    0.0000 C   0  0  0  0  0  0  0  0  0  0  0  0
   -0.3572    2.8874    0.0000 O   0  0  0  0  0  0  0  0  0  0  0  0
   -1.7861    2.8874    0.0000 N   0  0  0  0  0  0  0  0  0  0  0  0
   -1.0717   -0.8250    0.0000 C   0  0  0  0  0  0  0  0  0  0  0  0
   -0.3572   -1.2375    0.0000 N   0  0  0  0  0  0  0  0  0  0  0  0
    1.0717   -2.0624    0.0000 N   0  0  0  0  0  0  0  0  0  0  0  0
    1.7861   -2.4749    0.0000 C   0  0  0  0  0  0  0  0  0  0  0  0
    1.7861   -3.2999    0.0000 C   0  0  0  0  0  0  0  0  0  0  0  0
    1.0717   -3.7124    0.0000 C   0  0  0  0  0  0  0  0  0  0  0  0
    0.3572   -3.2999    0.0000 C   0  0  0  0  0  0  0  0  0  0  0  0
   -0.3572   -3.7124    0.0000 C   0  0  0  0  0  0  0  0  0  0  0  0
   -1.0717   -3.2999    0.0000 C   0  0  0  0  0  0  0  0  0  0  0  0
   -1.0717   -2.4749    0.0000 C   0  0  0  0  0  0  0  0  0  0  0  0
   -0.3572   -2.0624    0.0000 C   0  0  0  0  0  0  0  0  0  0  0  0
    0.3572   -2.4749    0.0000 C   0  0  0  0  0  0  0  0  0  0  0  0
   -1.7861    3.7124    0.0000 O   0  0  0  0  0  0  0  0  0  0  0  0
  1  2  1  0      
  2  3  1  0      
  3  4  2  0      
  4  5  1  0      
  5  6  2  0      
  6  7  1  0      
  2  7  2  0      
  1  8  2  0      
  1  9  1  0      
 12 13  2  0      
 13 14  1  0      
 14 15  2  0      
 15 16  1  0      
 16 17  2  0      
 17 18  1  0      
 18 19  2  0      
 19 20  1  0      
 20 21  2  0      
 12 21  1  0      
 16 21  1  0      
 11 20  1  0      
 10 11  1  0      
  5 10  1  0      
  9 22  1  0      
M  END

>  <RackCode>
HYCPK72335

>  <Cat. No.>
HY-123976

>  <Product Name>
MPT0G211

>  <ROW>
L

>  <COLUMN>
17

>  <CAS No.>
2151853-97-1

>  <MWt>
293.32

>  <Target>
HDAC

>  <Saltdate>


>  <Smiles>
O=C(NO)C1=CC=C(CNC2=C3N=CC=CC3=CC=C2)C=C1

>  <Solvent>
DMSO Solution

>  <Batch No.>
119569

>  <Quantity>
10mM  * 50uL

>  <Pathway>
Cell Cycle/DNA Damage; Epigenetics

>  <Synonyms>


>  <Formula>
C17H15N3O2

>  <Research_Area>
Cancer; Neurological Disease

>  <Clinical_Information>
No Development Reported

>  <SUPPLIER>
MedChemExpress

$$$$
Untitled Document
  ChemDraw09301613062D

 39 43  0  0  0  0  0  0  0  0999 V2000
    3.0765    1.2862    0.0000 N   0  0  0  0  0  0  0  0  0  0  0  0
    3.5614    0.6187    0.0000 C   0  0  0  0  0  0  0  0  0  0  0  0
    3.0765   -0.0487    0.0000 C   0  0  0  0  0  0  0  0  0  0  0  0
    2.2919    0.2062    0.0000 C   0  0  0  0  0  0  0  0  0  0  0  0
    1.5774   -0.2062    0.0000 C   0  0  0  0  0  0  0  0  0  0  0  0
    0.8629    0.2062    0.0000 C   0  0  0  0  0  0  0  0  0  0  0  0
    0.8629    1.0313    0.0000 C   0  0  0  0  0  0  0  0  0  0  0  0
    1.5774    1.4438    0.0000 C   0  0  0  0  0  0  0  0  0  0  0  0
    2.2919    1.0313    0.0000 C   0  0  0  0  0  0  0  0  0  0  0  0
    1.5774   -1.0313    0.0000 C   0  0  0  0  0  0  0  0  0  0  0  0
    2.2919   -1.4438    0.0000 O   0  0  0  0  0  0  0  0  0  0  0  0
    0.8629   -1.4438    0.0000 N   0  0  0  0  0  0  0  0  0  0  0  0
    0.1484    2.2688    0.0000 C   0  0  0  0  0  0  0  0  0  0  0  0
    0.1484    1.4438    0.0000 C   0  0  0  0  0  0  0  0  0  0  0  0
   -0.5660    1.0313    0.0000 C   0  0  0  0  0  0  0  0  0  0  0  0
   -1.2805    1.4438    0.0000 C   0  0  0  0  0  0  0  0  0  0  0  0
   -1.2805    2.2688    0.0000 C   0  0  0  0  0  0  0  0  0  0  0  0
   -0.5660    2.6813    0.0000 N   0  0  0  0  0  0  0  0  0  0  0  0
   -1.9950    2.6813    0.0000 N   0  0  0  0  0  0  0  0  0  0  0  0
   -2.7094    2.2688    0.0000 C   0  0  0  0  0  0  0  0  0  0  0  0
   -3.4239    2.6813    0.0000 C   0  0  0  0  0  0  0  0  0  0  0  0
   -3.4239    3.5063    0.0000 N   0  0  0  0  0  0  0  0  0  0  0  0
   -2.7094    3.9188    0.0000 C   0  0  0  0  0  0  0  0  0  0  0  0
   -1.9950    3.5063    0.0000 C   0  0  0  0  0  0  0  0  0  0  0  0
   -4.1384    3.9188    0.0000 C   0  0  0  0  0  0  0  0  0  0  0  0
    3.3314    2.0708    0.0000 C   0  0  0  0  0  0  0  0  0  0  0  0
    2.7794    2.6839    0.0000 C   0  0  0  0  0  0  0  0  0  0  0  0
    4.1384    2.2423    0.0000 C   0  0  0  0  0  0  0  0  0  0  0  0
    3.3314   -0.8333    0.0000 C   0  0  0  0  0  0  0  0  0  0  0  0
    0.8629   -2.2688    0.0000 C   0  0  0  0  0  0  0  0  0  0  0  0
   -0.5660   -2.2688    0.0000 C   0  0  0  0  0  0  0  0  0  0  0  0
    0.1484   -2.6813    0.0000 C   0  0  0  0  0  0  0  0  0  0  0  0
    0.1484   -3.5063    0.0000 C   0  0  0  0  0  0  0  0  0  0  0  0
   -0.5660   -3.9188    0.0000 C   0  0  0  0  0  0  0  0  0  0  0  0
   -1.2805   -3.5063    0.0000 C   0  0  0  0  0  0  0  0  0  0  0  0
   -1.2805   -2.6813    0.0000 N   0  0  0  0  0  0  0  0  0  0  0  0
   -0.5660   -1.4438    0.0000 O   0  0  0  0  0  0  0  0  0  0  0  0
   -1.9950   -3.9188    0.0000 C   0  0  0  0  0  0  0  0  0  0  0  0
    0.8629   -3.9188    0.0000 C   0  0  0  0  0  0  0  0  0  0  0  0
  1  2  1  0      
  2  3  2  0      
  3  4  1  0      
  4  5  1  0      
  5  6  2  0      
  6  7  1  0      
  7  8  2  0      
  8  9  1  0      
  1  9  1  0      
  4  9  2  0      
 10 11  2  0      
 10 12  1  0      
  5 10  1  0      
 13 14  1  0      
 14 15  2  0      
 15 16  1  0      
 16 17  2  0      
 17 18  1  0      
 13 18  2  0      
 19 20  1  0      
 20 21  1  0      
 21 22  1  0      
 22 23  1  0      
 23 24  1  0      
 19 24  1  0      
 22 25  1  0      
 17 19  1  0      
  7 14  1  0      
 26 27  1  0      
 26 28  1  0      
  1 26  1  0      
  3 29  1  0      
 31 32  1  0      
 32 33  2  0      
 33 34  1  0      
 34 35  2  0      
 35 36  1  0      
 31 36  1  0      
 31 37  2  0      
 35 38  1  0      
 33 39  1  0      
 30 32  1  0      
 12 30  1  0      
M  END

>  <RackCode>
HYCPK72335

>  <Cat. No.>
HY-12856

>  <Product Name>
GSK503

>  <ROW>
M

>  <COLUMN>
17

>  <CAS No.>
1346572-63-1

>  <MWt>
526.67

>  <Target>
Histone Methyltransferase

>  <Saltdate>
Free Base

>  <Smiles>
O=C(C1=CC(C2=CC=C(N3CCN(C)CC3)N=C2)=CC4=C1C(C)=CN4C(C)C)NCC5=C(C)C=C(C)NC5=O

>  <Solvent>
DMSO Solution

>  <Batch No.>
16709

>  <Quantity>
10mM  * 50uL

>  <Pathway>
Epigenetics

>  <Synonyms>


>  <Formula>
C31H38N6O2

>  <Research_Area>
Cancer

>  <Clinical_Information>
No Development Reported

>  <SUPPLIER>
MedChemExpress

$$$$
Untitled Document
  ChemDraw03041914402D

 23 26  0  0  0  0  0  0  0  0999 V2000
    1.1813   -0.3473    0.0000 C   0  0  0  0  0  0  0  0  0  0  0  0
    1.1813   -1.1723    0.0000 C   0  0  0  0  0  0  0  0  0  0  0  0
    1.8958   -1.5848    0.0000 C   0  0  0  0  0  0  0  0  0  0  0  0
    2.6103   -1.1723    0.0000 C   0  0  0  0  0  0  0  0  0  0  0  0
    2.6103   -0.3473    0.0000 C   0  0  0  0  0  0  0  0  0  0  0  0
    1.8958    0.0652    0.0000 C   0  0  0  0  0  0  0  0  0  0  0  0
    1.8958    0.8874    0.0000 N   0  0  0  0  0  0  0  0  0  0  0  0
    2.5632    1.3723    0.0000 C   0  0  0  0  0  0  0  0  0  0  0  0
    2.3083    2.1569    0.0000 C   0  0  0  0  0  0  0  0  0  0  0  0
    1.4833    2.1569    0.0000 C   0  0  0  0  0  0  0  0  0  0  0  0
    1.2284    1.3723    0.0000 C   0  0  0  0  0  0  0  0  0  0  0  0
    0.4693    0.0638    0.0000 N   0  0  0  0  0  0  0  0  0  0  0  0
   -0.2427   -0.3473    0.0000 C   0  0  0  0  0  0  0  0  0  0  0  0
   -0.9963   -0.0117    0.0000 C   0  0  0  0  0  0  0  0  0  0  0  0
   -1.5484   -0.6248    0.0000 C   0  0  0  0  0  0  0  0  0  0  0  0
   -1.1359   -1.3393    0.0000 S   0  0  0  0  0  0  0  0  0  0  0  0
   -0.3289   -1.1678    0.0000 N   0  0  0  0  0  0  0  0  0  0  0  0
   -1.2513    0.7729    0.0000 C   0  0  0  0  0  0  0  0  0  0  0  0
   -2.0582    0.9444    0.0000 C   0  0  0  0  0  0  0  0  0  0  0  0
   -2.6103    0.3313    0.0000 C   0  0  0  0  0  0  0  0  0  0  0  0
   -2.3553   -0.4533    0.0000 C   0  0  0  0  0  0  0  0  0  0  0  0
   -1.8010   -1.8225    0.0000 O   0  0  0  0  0  0  0  0  0  0  0  0
   -1.0499   -2.1569    0.0000 O   0  0  0  0  0  0  0  0  0  0  0  0
  1  2  1  0      
  2  3  2  0      
  3  4  1  0      
  4  5  2  0      
  5  6  1  0      
  6  1  2  0      
  6  7  1  0      
  7  8  1  0      
  8  9  1  0      
  9 10  1  0      
 10 11  1  0      
 11  7  1  0      
  1 12  1  0      
 12 13  1  0      
 13 14  1  0      
 14 15  2  0      
 15 16  1  0      
 16 17  1  0      
 17 13  2  0      
 14 18  1  0      
 18 19  2  0      
 19 20  1  0      
 20 21  2  0      
 21 15  1  0      
 16 22  2  0      
 16 23  2  0      
M  END

>  <RackCode>
HYCPK72335

>  <Cat. No.>
HY-111547

>  <Product Name>
M1001

>  <ROW>
N

>  <COLUMN>
17

>  <CAS No.>
874590-32-6

>  <MWt>
327.40

>  <Target>
HIF/HIF Prolyl-Hydroxylase

>  <Saltdate>
Free Base

>  <Smiles>
O=S1(C2=C(C=CC=C2)C(NC3=C(N4CCCC4)C=CC=C3)=N1)=O

>  <Solvent>
DMSO Solution

>  <Batch No.>
58651

>  <Quantity>
10mM  * 50uL

>  <Pathway>
Metabolic Enzyme/Protease

>  <Synonyms>


>  <Formula>
C17H17N3O2S

>  <Research_Area>
Cancer

>  <Clinical_Information>
No Development Reported

>  <SUPPLIER>
MedChemExpress

$$$$
Untitled Document
  ChemDraw09301908592D

 17 19  0  0  0  0  0  0  0  0999 V2000
    0.0000    1.0313    0.0000 C   0  0  0  0  0  0  0  0  0  0  0  0
    0.7145    1.4437    0.0000 C   0  0  0  0  0  0  0  0  0  0  0  0
    1.4289    0.2062    0.0000 C   0  0  0  0  0  0  0  0  0  0  0  0
    2.1434   -0.2062    0.0000 C   0  0  0  0  0  0  0  0  0  0  0  0
    2.1434   -1.0313    0.0000 C   0  0  0  0  0  0  0  0  0  0  0  0
    1.4289   -1.4437    0.0000 C   0  0  0  0  0  0  0  0  0  0  0  0
    0.7145   -1.0313    0.0000 C   0  0  0  0  0  0  0  0  0  0  0  0
    0.0000   -1.4437    0.0000 O   0  0  0  0  0  0  0  0  0  0  0  0
   -0.7145   -1.0313    0.0000 C   0  0  0  0  0  0  0  0  0  0  0  0
   -1.4289   -1.4437    0.0000 C   0  0  0  0  0  0  0  0  0  0  0  0
   -2.1434   -1.0313    0.0000 C   0  0  0  0  0  0  0  0  0  0  0  0
   -2.1434   -0.2062    0.0000 C   0  0  0  0  0  0  0  0  0  0  0  0
   -1.4289    0.2062    0.0000 C   0  0  0  0  0  0  0  0  0  0  0  0
   -0.7145   -0.2062    0.0000 C   0  0  0  0  0  0  0  0  0  0  0  0
    0.0000    0.2062    0.0000 N   0  0  0  0  0  0  0  0  0  0  0  0
    0.7145   -0.2062    0.0000 C   0  0  0  0  0  0  0  0  0  0  0  0
   -0.7145    1.4437    0.0000 O   0  0  0  0  0  0  0  0  0  0  0  0
  1  2  1  0      
  3  4  1  0      
  4  5  2  0      
  5  6  1  0      
  6  7  2  0      
  7  8  1  0      
  8  9  1  0      
  9 10  1  0      
 10 11  2  0      
 11 12  1  0      
 12 13  2  0      
 13 14  1  0      
  9 14  2  0      
 14 15  1  0      
 15 16  1  0      
  7 16  1  0      
  3 16  2  0      
  1 15  1  0      
  1 17  2  0      
M  END

>  <RackCode>
HYCPK72335

>  <Cat. No.>
HY-129163

>  <Product Name>
HJ-PI01

>  <ROW>
O

>  <COLUMN>
17

>  <CAS No.>
6192-43-4

>  <MWt>
225.24

>  <Target>
Pim

>  <Saltdate>


>  <Smiles>
CC(N1C2=C(C=CC=C2)OC3=CC=CC=C13)=O

>  <Solvent>
DMSO Solution

>  <Batch No.>
283391

>  <Quantity>
10mM  * 50uL

>  <Pathway>
JAK/STAT Signaling

>  <Synonyms>
10-Acetylphenoxazine

>  <Formula>
C14H11NO2

>  <Research_Area>
Cancer

>  <Clinical_Information>
No Development Reported

>  <SUPPLIER>
MedChemExpress

$$$$
Untitled Document
  ChemDraw01031712552D

 21 23  0  0  0  0  0  0  0  0999 V2000
    1.1389   -0.1192    0.0000 C   0  0  0  0  0  0  0  0  0  0  0  0
    0.4245   -0.5317    0.0000 N   0  0  0  0  0  0  0  0  0  0  0  0
   -0.2900   -0.1192    0.0000 C   0  0  0  0  0  0  0  0  0  0  0  0
   -0.2900    0.7058    0.0000 C   0  0  0  0  0  0  0  0  0  0  0  0
    0.4245    1.1183    0.0000 C   0  0  0  0  0  0  0  0  0  0  0  0
    1.1389    0.7058    0.0000 N   0  0  0  0  0  0  0  0  0  0  0  0
    1.9235    0.9608    0.0000 N   0  0  0  0  0  0  0  0  0  0  0  0
    2.4085    0.2933    0.0000 C   0  0  0  0  0  0  0  0  0  0  0  0
    1.9235   -0.3741    0.0000 C   0  0  0  0  0  0  0  0  0  0  0  0
    2.1785   -1.1587    0.0000 C   0  0  0  0  0  0  0  0  0  0  0  0
    2.4334   -1.9433    0.0000 N   0  0  0  0  0  0  0  0  0  0  0  0
   -1.0045   -0.5317    0.0000 C   0  0  0  0  0  0  0  0  0  0  0  0
   -1.0045   -1.3567    0.0000 C   0  0  0  0  0  0  0  0  0  0  0  0
   -1.7190   -1.7692    0.0000 C   0  0  0  0  0  0  0  0  0  0  0  0
   -2.4334   -1.3567    0.0000 C   0  0  0  0  0  0  0  0  0  0  0  0
   -2.4334   -0.5317    0.0000 C   0  0  0  0  0  0  0  0  0  0  0  0
   -1.7190   -0.1192    0.0000 C   0  0  0  0  0  0  0  0  0  0  0  0
    0.4245    1.9433    0.0000 O   0  0  0  0  0  0  0  0  0  0  0  0
   -1.0045    1.1183    0.0000 C   0  0  0  0  0  0  0  0  0  0  0  0
   -1.0045    1.9433    0.0000 C   0  0  0  0  0  0  0  0  0  0  0  0
   -1.7190    0.7058    0.0000 C   0  0  0  0  0  0  0  0  0  0  0  0
  1  2  1  0      
  2  3  1  0      
  3  4  2  0      
  4  5  1  0      
  5  6  1  0      
  1  6  1  0      
  7  8  2  0      
  8  9  1  0      
  6  7  1  0      
  1  9  2  0      
 10 11  3  0      
  9 10  1  0      
 12 13  1  0      
 13 14  2  0      
 14 15  1  0      
 15 16  2  0      
 16 17  1  0      
 12 17  2  0      
  3 12  1  0      
  5 18  2  0      
 19 20  1  0      
 19 21  1  0      
  4 19  1  0      
M  END

>  <RackCode>
HYCPK72335

>  <Cat. No.>
HY-100421

>  <Product Name>
CPI-455

>  <ROW>
P

>  <COLUMN>
17

>  <CAS No.>
1628208-23-0

>  <MWt>
278.31

>  <Target>
Histone Demethylase

>  <Saltdate>
Free Base

>  <Smiles>
N#CC1=C2NC(C3=CC=CC=C3)=C(C(C)C)C(N2N=C1)=O

>  <Solvent>
DMSO Solution

>  <Batch No.>
271516

>  <Quantity>
10mM  * 50uL

>  <Pathway>
Epigenetics

>  <Synonyms>


>  <Formula>
C16H14N4O

>  <Research_Area>
Cancer

>  <Clinical_Information>
No Development Reported

>  <SUPPLIER>
MedChemExpress

$$$$
Untitled Document
  ChemDraw03071615052D

 20 22  0  0  0  0  0  0  0  0999 V2000
    0.6529   -0.9085    0.0000 C   0  0  0  0  0  0  0  0  0  0  0  0
    0.6529   -1.7334    0.0000 O   0  0  0  0  0  0  0  0  0  0  0  0
   -0.0616   -0.4960    0.0000 N   0  0  0  0  0  0  0  0  0  0  0  0
   -0.7761   -0.9085    0.0000 C   0  0  0  0  0  0  0  0  0  0  0  0
   -1.4906   -0.4960    0.0000 C   0  0  0  0  0  0  0  0  0  0  0  0
   -1.4906    0.3290    0.0000 C   0  0  0  0  0  0  0  0  0  0  0  0
   -0.7761    0.7415    0.0000 C   0  0  0  0  0  0  0  0  0  0  0  0
   -0.0616    0.3290    0.0000 C   0  0  0  0  0  0  0  0  0  0  0  0
   -2.2049    0.7415    0.0000 N   0  0  0  0  0  0  0  0  0  0  0  0
   -2.9586    0.4059    0.0000 C   0  0  0  0  0  0  0  0  0  0  0  0
   -3.5106    1.0190    0.0000 C   0  0  0  0  0  0  0  0  0  0  0  0
   -3.0981    1.7334    0.0000 C   0  0  0  0  0  0  0  0  0  0  0  0
   -2.2912    1.5620    0.0000 C   0  0  0  0  0  0  0  0  0  0  0  0
    1.3673    0.3290    0.0000 C   0  0  0  0  0  0  0  0  0  0  0  0
    1.3673   -0.4960    0.0000 C   0  0  0  0  0  0  0  0  0  0  0  0
    2.0817   -0.9085    0.0000 C   0  0  0  0  0  0  0  0  0  0  0  0
    2.7962   -0.4960    0.0000 C   0  0  0  0  0  0  0  0  0  0  0  0
    2.7962    0.3290    0.0000 C   0  0  0  0  0  0  0  0  0  0  0  0
    2.0817    0.7415    0.0000 N   0  0  0  0  0  0  0  0  0  0  0  0
    3.5106   -0.9085    0.0000 Br  0  0  0  0  0  0  0  0  0  0  0  0
  1  2  2  0      
  3  4  1  0      
  4  5  1  0      
  5  6  1  0      
  6  7  1  0      
  7  8  1  0      
  3  8  1  0      
  9 10  1  0      
 10 11  1  0      
 11 12  1  0      
 12 13  1  0      
  9 13  1  0      
  6  9  1  0      
  1  3  1  0      
 14 15  1  0      
 15 16  2  0      
 16 17  1  0      
 17 18  2  0      
 18 19  1  0      
 14 19  2  0      
 17 20  1  0      
  1 15  1  0      
M  END

>  <RackCode>
HYCPK72335

>  <Cat. No.>
HY-15839

>  <Product Name>
UNC 669

>  <ROW>
A

>  <COLUMN>
18

>  <CAS No.>
1314241-44-5

>  <MWt>
338.24

>  <Target>
Epigenetic Reader Domain

>  <Saltdate>
Free Base

>  <Smiles>
O=C(C1=CC(Br)=CN=C1)N2CCC(N3CCCC3)CC2

>  <Solvent>
DMSO Solution

>  <Batch No.>
11014

>  <Quantity>
10mM  * 50uL

>  <Pathway>
Epigenetics

>  <Synonyms>


>  <Formula>
C15H20BrN3O

>  <Research_Area>
Cancer

>  <Clinical_Information>
No Development Reported

>  <SUPPLIER>
MedChemExpress

$$$$
Untitled Document
  ChemDraw10171908402D

 21 23  0  0  0  0  0  0  0  0999 V2000
    1.0101    1.5113    0.0000 O   0  0  0  0  0  0  0  0  0  0  0  0
    0.2956    1.0988    0.0000 C   0  0  0  0  0  0  0  0  0  0  0  0
   -0.4189    1.5113    0.0000 C   0  0  0  0  0  0  0  0  0  0  0  0
   -1.1333    1.0988    0.0000 C   0  0  0  0  0  0  0  0  0  0  0  0
   -1.1333    0.2738    0.0000 C   0  0  0  0  0  0  0  0  0  0  0  0
   -1.8478   -0.1387    0.0000 C   0  0  0  0  0  0  0  0  0  0  0  0
   -1.9340   -0.9592    0.0000 C   0  0  0  0  0  0  0  0  0  0  0  0
   -1.3209   -1.5113    0.0000 C   0  0  0  0  0  0  0  0  0  0  0  0
   -2.7410   -1.1308    0.0000 O   0  0  0  0  0  0  0  0  0  0  0  0
   -3.1535   -0.4163    0.0000 N   0  0  0  0  0  0  0  0  0  0  0  0
   -2.6015    0.1968    0.0000 C   0  0  0  0  0  0  0  0  0  0  0  0
   -2.7730    1.0038    0.0000 C   0  0  0  0  0  0  0  0  0  0  0  0
   -0.4189   -0.1387    0.0000 C   0  0  0  0  0  0  0  0  0  0  0  0
    0.2956    0.2738    0.0000 N   0  0  0  0  0  0  0  0  0  0  0  0
    1.0101   -0.1387    0.0000 C   0  0  0  0  0  0  0  0  0  0  0  0
    1.7246    0.2738    0.0000 C   0  0  0  0  0  0  0  0  0  0  0  0
    1.7246    1.0988    0.0000 C   0  0  0  0  0  0  0  0  0  0  0  0
    2.4390    1.5113    0.0000 C   0  0  0  0  0  0  0  0  0  0  0  0
    3.1535    1.0988    0.0000 C   0  0  0  0  0  0  0  0  0  0  0  0
    3.1535    0.2738    0.0000 C   0  0  0  0  0  0  0  0  0  0  0  0
    2.4390   -0.1387    0.0000 C   0  0  0  0  0  0  0  0  0  0  0  0
  1  2  2  0      
  2  3  1  0      
  3  4  2  0      
  4  5  1  0      
  5  6  1  0      
  6  7  2  0      
  7  8  1  0      
  7  9  1  0      
  9 10  1  0      
 10 11  2  0      
  6 11  1  0      
 11 12  1  0      
  5 13  2  0      
  2 14  1  0      
 13 14  1  0      
 14 15  1  0      
 15 16  1  0      
 16 17  2  0      
 17 18  1  0      
 18 19  2  0      
 19 20  1  0      
 20 21  2  0      
 16 21  1  0      
M  END

>  <RackCode>
HYCPK72335

>  <Cat. No.>
HY-129201

>  <Product Name>
ZEN-2759

>  <ROW>
B

>  <COLUMN>
18

>  <CAS No.>
1616400-50-0

>  <MWt>
280.32

>  <Target>
Epigenetic Reader Domain

>  <Saltdate>


>  <Smiles>
O=C1C=CC(C2=C(ON=C2C)C)=CN1CC3=CC=CC=C3

>  <Solvent>
DMSO Solution

>  <Batch No.>
325336

>  <Quantity>
10mM  * 50uL

>  <Pathway>
Epigenetics

>  <Synonyms>


>  <Formula>
C17H16N2O2

>  <Research_Area>
Cancer

>  <Clinical_Information>
No Development Reported

>  <SUPPLIER>
MedChemExpress

$$$$
Untitled Document
  ChemDraw07271710442D

 20 21  0  0  0  0  0  0  0  0999 V2000
   -2.4907    0.8200    0.0000 C   0  0  0  0  0  0  0  0  0  0  0  0
   -2.4907   -0.0050    0.0000 C   0  0  0  0  0  0  0  0  0  0  0  0
   -1.7763   -0.4175    0.0000 C   0  0  0  0  0  0  0  0  0  0  0  0
   -1.0618   -0.0050    0.0000 C   0  0  0  0  0  0  0  0  0  0  0  0
   -1.0618    0.8200    0.0000 N   0  0  0  0  0  0  0  0  0  0  0  0
   -1.7763    1.2325    0.0000 C   0  0  0  0  0  0  0  0  0  0  0  0
   -3.2027   -0.4161    0.0000 C   0  0  0  0  0  0  0  0  0  0  0  0
   -3.9122   -0.0064    0.0000 N   0  0  0  0  0  0  0  0  0  0  0  0
   -3.2027   -1.2354    0.0000 O   0  0  0  0  0  0  0  0  0  0  0  0
   -0.3498    1.2311    0.0000 C   0  0  0  0  0  0  0  0  0  0  0  0
    0.3597    0.8214    0.0000 C   0  0  0  0  0  0  0  0  0  0  0  0
    1.0667    1.2296    0.0000 N   0  0  0  0  0  0  0  0  0  0  0  0
    0.3597    0.0050    0.0000 O   0  0  0  0  0  0  0  0  0  0  0  0
    1.7713    0.8229    0.0000 C   0  0  0  0  0  0  0  0  0  0  0  0
    1.7713   -0.0021    0.0000 C   0  0  0  0  0  0  0  0  0  0  0  0
    2.4858   -0.4146    0.0000 C   0  0  0  0  0  0  0  0  0  0  0  0
    3.2002   -0.0021    0.0000 C   0  0  0  0  0  0  0  0  0  0  0  0
    3.2002    0.8229    0.0000 C   0  0  0  0  0  0  0  0  0  0  0  0
    2.4858    1.2354    0.0000 C   0  0  0  0  0  0  0  0  0  0  0  0
    3.9122   -0.4132    0.0000 Br  0  0  0  0  0  0  0  0  0  0  0  0
  1  2  1  0      
  2  3  1  0      
  3  4  1  0      
  4  5  1  0      
  5  6  1  0      
  6  1  1  0      
  2  7  1  0      
  7  8  1  0      
  7  9  2  0      
  5 10  1  0      
 10 11  1  0      
 11 12  1  0      
 11 13  2  0      
 12 14  1  0      
 14 15  2  0      
 15 16  1  0      
 16 17  2  0      
 17 18  1  0      
 18 19  2  0      
 19 14  1  0      
 17 20  1  0      
M  END

>  <RackCode>
HYCPK72335

>  <Cat. No.>
HY-21972

>  <Product Name>
BCI-121

>  <ROW>
C

>  <COLUMN>
18

>  <CAS No.>
432529-82-3

>  <MWt>
340.22

>  <Target>
Histone Methyltransferase

>  <Saltdate>
Free Base

>  <Smiles>
NC(C1CCN(CC(NC2=CC=C(Br)C=C2)=O)CC1)=O

>  <Solvent>
DMSO Solution

>  <Batch No.>
25982

>  <Quantity>
10mM  * 50uL

>  <Pathway>
Epigenetics

>  <Synonyms>


>  <Formula>
C14H18BrN3O2

>  <Research_Area>
Cancer

>  <Clinical_Information>
No Development Reported

>  <SUPPLIER>
MedChemExpress

$$$$
Untitled Document
  ChemDraw02282311032D

 20 22  0  0  0  0  0  0  0  0999 V2000
   -1.4332   -1.4172    0.0000 O   0  0  0  0  0  0  0  0  0  0  0  0
   -1.5111   -0.5958    0.0000 S   0  0  0  0  0  0  0  0  0  0  0  0
   -2.1834   -1.0740    0.0000 O   0  0  0  0  0  0  0  0  0  0  0  0
   -0.7024   -0.4325    0.0000 N   0  0  0  0  0  0  0  0  0  0  0  0
   -0.6079    0.3870    0.0000 C   0  0  0  0  0  0  0  0  0  0  0  0
    0.1107    0.7923    0.0000 N   0  0  0  0  0  0  0  0  0  0  0  0
    0.8210    0.3725    0.0000 C   0  0  0  0  0  0  0  0  0  0  0  0
    1.5396    0.7777    0.0000 C   0  0  0  0  0  0  0  0  0  0  0  0
    2.2499    0.3580    0.0000 C   0  0  0  0  0  0  0  0  0  0  0  0
    2.9685    0.7632    0.0000 Br  0  0  0  0  0  0  0  0  0  0  0  0
    2.2415   -0.4669    0.0000 C   0  0  0  0  0  0  0  0  0  0  0  0
    1.5229   -0.8722    0.0000 C   0  0  0  0  0  0  0  0  0  0  0  0
    1.5145   -1.6971    0.0000 Br  0  0  0  0  0  0  0  0  0  0  0  0
    0.8126   -0.4524    0.0000 C   0  0  0  0  0  0  0  0  0  0  0  0
   -1.3581    0.7302    0.0000 C   0  0  0  0  0  0  0  0  0  0  0  0
   -1.6051    1.5174    0.0000 C   0  0  0  0  0  0  0  0  0  0  0  0
   -2.4102    1.6971    0.0000 C   0  0  0  0  0  0  0  0  0  0  0  0
   -2.9685    1.0897    0.0000 C   0  0  0  0  0  0  0  0  0  0  0  0
   -2.7215    0.3025    0.0000 C   0  0  0  0  0  0  0  0  0  0  0  0
   -1.9163    0.1228    0.0000 C   0  0  0  0  0  0  0  0  0  0  0  0
  1  2  2  0      
  2  3  2  0      
  2  4  1  0      
  4  5  2  0      
  5  6  1  0      
  6  7  1  0      
  7  8  1  0      
  8  9  2  0      
  9 10  1  0      
  9 11  1  0      
 11 12  2  0      
 12 13  1  0      
 12 14  1  0      
  7 14  2  0      
  5 15  1  0      
 15 16  1  0      
 16 17  2  0      
 17 18  1  0      
 18 19  2  0      
 19 20  1  0      
 15 20  2  0      
  2 20  1  0      
M  END

>  <RackCode>
HYCPK72335

>  <Cat. No.>
HY-153016

>  <Product Name>
HIF-2¦Á agonist 2

>  <ROW>
D

>  <COLUMN>
18

>  <CAS No.>
2750141-15-0

>  <MWt>
416.09

>  <Target>
HIF/HIF Prolyl-Hydroxylase

>  <Saltdate>


>  <Smiles>
O=S1(N=C(C2=C1C=CC=C2)NC3=CC(Br)=CC(Br)=C3)=O

>  <Solvent>
DMSO Solution

>  <Batch No.>
262278

>  <Quantity>
10mM  * 50uL

>  <Pathway>
Metabolic Enzyme/Protease

>  <Synonyms>


>  <Formula>
C13H8Br2N2O2S

>  <Research_Area>
Inflammation/Immunology

>  <Clinical_Information>
No Development Reported

>  <SUPPLIER>
MedChemExpress

$$$$
Untitled Document
  ChemDraw01101916002D

 34 39  0  0  0  0  0  0  0  0999 V2000
   -1.3711    1.1187    0.0000 C   0  0  0  0  0  0  0  0  0  0  0  0
   -1.9231    1.7318    0.0000 N   0  0  0  0  0  0  0  0  0  0  0  0
   -2.7301    1.5603    0.0000 C   0  0  0  0  0  0  0  0  0  0  0  0
   -2.9850    0.7757    0.0000 C   0  0  0  0  0  0  0  0  0  0  0  0
   -2.4330    0.1626    0.0000 C   0  0  0  0  0  0  0  0  0  0  0  0
   -1.6260    0.3341    0.0000 N   0  0  0  0  0  0  0  0  0  0  0  0
   -3.8100    0.7757    0.0000 C   0  0  0  0  0  0  0  0  0  0  0  0
   -4.0650    1.5603    0.0000 C   0  0  0  0  0  0  0  0  0  0  0  0
   -3.3975    2.0452    0.0000 S   0  0  0  0  0  0  0  0  0  0  0  0
   -4.8719    1.7318    0.0000 C   0  0  0  0  0  0  0  0  0  0  0  0
   -5.4240    1.1187    0.0000 C   0  0  0  0  0  0  0  0  0  0  0  0
   -5.1690    0.3341    0.0000 C   0  0  0  0  0  0  0  0  0  0  0  0
   -4.3620    0.1626    0.0000 C   0  0  0  0  0  0  0  0  0  0  0  0
   -2.6879   -0.6220    0.0000 O   0  0  0  0  0  0  0  0  0  0  0  0
   -0.5641    1.2903    0.0000 C   0  0  0  0  0  0  0  0  0  0  0  0
   -0.0121    0.6772    0.0000 N   0  0  0  0  0  0  0  0  0  0  0  0
    0.7949    0.8487    0.0000 C   0  0  0  0  0  0  0  0  0  0  0  0
    1.3469    0.2356    0.0000 C   0  0  0  0  0  0  0  0  0  0  0  0
    1.0920   -0.5490    0.0000 N   0  0  0  0  0  0  0  0  0  0  0  0
    0.2850   -0.7205    0.0000 C   0  0  0  0  0  0  0  0  0  0  0  0
   -0.2670   -0.1074    0.0000 C   0  0  0  0  0  0  0  0  0  0  0  0
    1.6440   -1.1621    0.0000 C   0  0  0  0  0  0  0  0  0  0  0  0
    1.3891   -1.9467    0.0000 O   0  0  0  0  0  0  0  0  0  0  0  0
    2.4510   -0.9906    0.0000 C   0  0  0  0  0  0  0  0  0  0  0  0
    3.0030   -1.6037    0.0000 C   0  0  0  0  0  0  0  0  0  0  0  0
    3.8100   -1.4321    0.0000 C   0  0  0  0  0  0  0  0  0  0  0  0
    4.0650   -0.6475    0.0000 C   0  0  0  0  0  0  0  0  0  0  0  0
    3.5129   -0.0344    0.0000 C   0  0  0  0  0  0  0  0  0  0  0  0
    2.7059   -0.2060    0.0000 O   0  0  0  0  0  0  0  0  0  0  0  0
    4.8719   -0.4760    0.0000 C   0  0  0  0  0  0  0  0  0  0  0  0
    5.4240   -1.0891    0.0000 C   0  0  0  0  0  0  0  0  0  0  0  0
    5.1690   -1.8737    0.0000 C   0  0  0  0  0  0  0  0  0  0  0  0
    4.3620   -2.0452    0.0000 C   0  0  0  0  0  0  0  0  0  0  0  0
    3.7679    0.7502    0.0000 O   0  0  0  0  0  0  0  0  0  0  0  0
  1  2  1  0      
  2  3  1  0      
  3  4  2  0      
  4  5  1  0      
  5  6  1  0      
  1  6  2  0      
  7  8  2  0      
  8  9  1  0      
 10 11  1  0      
 11 12  1  0      
 12 13  1  0      
  7 13  1  0      
  8 10  1  0      
  3  9  1  0      
  4  7  1  0      
  5 14  2  0      
 16 17  1  0      
 17 18  1  0      
 18 19  1  0      
 19 20  1  0      
 20 21  1  0      
 16 21  1  0      
 22 23  2  0      
 24 25  1  0      
 25 26  1  0      
 26 27  1  0      
 27 28  1  0      
 28 29  1  0      
 24 29  1  0      
 30 31  1  0      
 31 32  2  0      
 32 33  1  0      
 26 33  2  0      
 27 30  2  0      
 28 34  2  0      
 24 22  1  6      
 19 22  1  0      
 15 16  1  0      
  1 15  1  0      
M  END

>  <RackCode>
HYCPK72335

>  <Cat. No.>
HY-114340

>  <Product Name>
LEM-14

>  <ROW>
E

>  <COLUMN>
18

>  <CAS No.>
1814881-70-3

>  <MWt>
478.56

>  <Target>
Histone Methyltransferase

>  <Saltdate>


>  <Smiles>
O=C1C(C2=C(CCCC2)S3)=C3NC(CN4CCN(C([C@H]5CC6=CC=CC=C6C(O5)=O)=O)CC4)=N1

>  <Solvent>
DMSO Solution

>  <Batch No.>
248923

>  <Quantity>
10mM  * 50uL

>  <Pathway>
Epigenetics

>  <Synonyms>


>  <Formula>
C25H26N4O4S

>  <Research_Area>
Cancer

>  <Clinical_Information>
No Development Reported

>  <SUPPLIER>
MedChemExpress

$$$$
Untitled Document
  ChemDraw09081609332D

 25 26  0  0  0  0  0  0  0  0999 V2000
    2.5005    1.6500    0.0000 C   0  0  0  0  0  0  0  0  0  0  0  0
    1.7861    1.2375    0.0000 C   0  0  0  0  0  0  0  0  0  0  0  0
    1.7861    0.4125    0.0000 C   0  0  0  0  0  0  0  0  0  0  0  0
    1.0717    0.0000    0.0000 C   0  0  0  0  0  0  0  0  0  0  0  0
    0.3572    0.4125    0.0000 C   0  0  0  0  0  0  0  0  0  0  0  0
    0.3572    1.2375    0.0000 C   0  0  0  0  0  0  0  0  0  0  0  0
    1.0717    1.6500    0.0000 C   0  0  0  0  0  0  0  0  0  0  0  0
    2.5005    2.4749    0.0000 O   0  0  0  0  0  0  0  0  0  0  0  0
    3.2150    1.2375    0.0000 N   0  0  0  0  0  0  0  0  0  0  0  0
    3.9295    1.6500    0.0000 O   0  0  0  0  0  0  0  0  0  0  0  0
   -0.3572    0.0000    0.0000 C   0  0  0  0  0  0  0  0  0  0  0  0
   -0.3572   -0.8250    0.0000 N   0  0  0  0  0  0  0  0  0  0  0  0
   -1.0717   -1.2375    0.0000 C   0  0  0  0  0  0  0  0  0  0  0  0
   -1.0717   -2.0624    0.0000 O   0  0  0  0  0  0  0  0  0  0  0  0
   -1.7861   -0.8250    0.0000 N   0  0  0  0  0  0  0  0  0  0  0  0
   -2.5005   -1.2375    0.0000 C   0  0  0  0  0  0  0  0  0  0  0  0
   -2.5005   -2.0624    0.0000 C   0  0  0  0  0  0  0  0  0  0  0  0
   -3.2150   -2.4749    0.0000 C   0  0  0  0  0  0  0  0  0  0  0  0
   -3.9295   -2.0624    0.0000 C   0  0  0  0  0  0  0  0  0  0  0  0
   -3.9295   -1.2375    0.0000 C   0  0  0  0  0  0  0  0  0  0  0  0
   -3.2150   -0.8250    0.0000 C   0  0  0  0  0  0  0  0  0  0  0  0
    0.3572   -1.2375    0.0000 C   0  0  0  0  0  0  0  0  0  0  0  0
    1.0717   -0.8250    0.0000 C   0  0  0  0  0  0  0  0  0  0  0  0
    1.7861   -1.2375    0.0000 C   0  0  0  0  0  0  0  0  0  0  0  0
    2.5005   -0.8250    0.0000 C   0  0  0  0  0  0  0  0  0  0  0  0
  1  2  1  0      
  2  3  1  0      
  3  4  2  0      
  4  5  1  0      
  5  6  2  0      
  6  7  1  0      
  2  7  2  0      
  1  8  2  0      
  1  9  1  0      
  9 10  1  0      
 13 14  2  0      
 16 17  1  0      
 17 18  2  0      
 18 19  1  0      
 19 20  2  0      
 20 21  1  0      
 16 21  2  0      
 15 16  1  0      
 13 15  1  0      
 12 13  1  0      
 22 23  1  0      
 23 24  1  0      
 24 25  1  0      
 12 22  1  0      
 11 12  1  0      
  5 11  1  0      
M  END

>  <RackCode>
HYCPK72335

>  <Cat. No.>
HY-16699

>  <Product Name>
Nexturastat A

>  <ROW>
F

>  <COLUMN>
18

>  <CAS No.>
1403783-31-2

>  <MWt>
341.40

>  <Target>
HDAC

>  <Saltdate>
Free Base

>  <Smiles>
O=C(NO)C1=CC=C(CN(CCCC)C(NC2=CC=CC=C2)=O)C=C1

>  <Solvent>
DMSO Solution

>  <Batch No.>
12712

>  <Quantity>
10mM  * 50uL

>  <Pathway>
Cell Cycle/DNA Damage; Epigenetics

>  <Synonyms>


>  <Formula>
C19H23N3O3

>  <Research_Area>
Cancer

>  <Clinical_Information>
No Development Reported

>  <SUPPLIER>
MedChemExpress

$$$$
Untitled Document
  ChemDraw12191615202D

 29 32  0  0  0  0  0  0  0  0999 V2000
   -1.0473    1.0313    0.0000 C   0  0  0  0  0  0  0  0  0  0  0  0
   -1.7617    1.4438    0.0000 C   0  0  0  0  0  0  0  0  0  0  0  0
   -1.7617    2.2688    0.0000 C   0  0  0  0  0  0  0  0  0  0  0  0
   -2.4762    2.6813    0.0000 C   0  0  0  0  0  0  0  0  0  0  0  0
   -3.1907    2.2688    0.0000 C   0  0  0  0  0  0  0  0  0  0  0  0
   -3.1907    1.4438    0.0000 C   0  0  0  0  0  0  0  0  0  0  0  0
   -2.4762    1.0313    0.0000 C   0  0  0  0  0  0  0  0  0  0  0  0
   -0.3328    1.4438    0.0000 O   0  0  0  0  0  0  0  0  0  0  0  0
   -1.0473    0.2062    0.0000 N   0  0  0  0  0  0  0  0  0  0  0  0
   -1.0473    2.6813    0.0000 O   0  0  0  0  0  0  0  0  0  0  0  0
   -0.3328    2.2688    0.0000 C   0  0  0  0  0  0  0  0  0  0  0  0
    2.3657   -0.6187    0.0000 C   0  0  0  0  0  0  0  0  0  0  0  0
    1.8808    0.0487    0.0000 N   0  0  0  0  0  0  0  0  0  0  0  0
    1.0961   -0.2062    0.0000 C   0  0  0  0  0  0  0  0  0  0  0  0
    1.0961   -1.0313    0.0000 C   0  0  0  0  0  0  0  0  0  0  0  0
    1.8808   -1.2862    0.0000 N   0  0  0  0  0  0  0  0  0  0  0  0
    0.3817    0.2062    0.0000 C   0  0  0  0  0  0  0  0  0  0  0  0
   -0.3328   -0.2062    0.0000 C   0  0  0  0  0  0  0  0  0  0  0  0
   -0.3328   -1.0313    0.0000 C   0  0  0  0  0  0  0  0  0  0  0  0
    0.3817   -1.4438    0.0000 C   0  0  0  0  0  0  0  0  0  0  0  0
   -1.0473   -1.4438    0.0000 N   0  0  0  0  0  0  0  0  0  0  0  0
    3.1907   -0.6187    0.0000 O   0  0  0  0  0  0  0  0  0  0  0  0
    2.1357    0.8333    0.0000 C   0  0  0  0  0  0  0  0  0  0  0  0
    2.1357   -2.0708    0.0000 C   0  0  0  0  0  0  0  0  0  0  0  0
   -1.7617   -1.0313    0.0000 C   0  0  0  0  0  0  0  0  0  0  0  0
   -2.4762   -1.4438    0.0000 C   0  0  0  0  0  0  0  0  0  0  0  0
   -2.4762   -2.2688    0.0000 C   0  0  0  0  0  0  0  0  0  0  0  0
   -1.7617   -2.6813    0.0000 C   0  0  0  0  0  0  0  0  0  0  0  0
   -1.0473   -2.2688    0.0000 C   0  0  0  0  0  0  0  0  0  0  0  0
  1  2  1  0      
  2  3  1  0      
  3  4  2  0      
  4  5  1  0      
  5  6  2  0      
  6  7  1  0      
  2  7  2  0      
  1  8  2  0      
  1  9  1  0      
 10 11  1  0      
  3 10  1  0      
 12 13  1  0      
 13 14  1  0      
 14 15  1  0      
 15 16  1  0      
 12 16  1  0      
 17 18  1  0      
 18 19  2  0      
 19 20  1  0      
 15 20  2  0      
 14 17  2  0      
 19 21  1  0      
 12 22  2  0      
 13 23  1  0      
 16 24  1  0      
  9 18  1  0      
 21 25  1  0      
 25 26  1  0      
 26 27  1  0      
 27 28  1  0      
 28 29  1  0      
 29 21  1  0      
M  END

>  <RackCode>
HYCPK72335

>  <Cat. No.>
HY-18665

>  <Product Name>
GSK-5959

>  <ROW>
G

>  <COLUMN>
18

>  <CAS No.>
901245-65-6

>  <MWt>
394.47

>  <Target>
Epigenetic Reader Domain

>  <Saltdate>
Free Base

>  <Smiles>
O=C(NC1=C(N2CCCCC2)C=C(N3C)C(N(C)C3=O)=C1)C4=CC=CC=C4OC

>  <Solvent>
DMSO Solution

>  <Batch No.>
17651

>  <Quantity>
10mM  * 50uL

>  <Pathway>
Epigenetics

>  <Synonyms>


>  <Formula>
C22H26N4O3

>  <Research_Area>
Cancer

>  <Clinical_Information>
No Development Reported

>  <SUPPLIER>
MedChemExpress

$$$$
Untitled Document
  ChemDraw05101917262D

 19 21  0  0  0  0  0  0  0  0999 V2000
   -1.4842    0.0000    0.0000 O   0  0  0  0  0  0  0  0  0  0  0  0
   -0.6592    0.0000    0.0000 S   0  0  0  0  0  0  0  0  0  0  0  0
   -0.6592    0.8250    0.0000 C   0  0  0  0  0  0  0  0  0  0  0  0
   -1.3737    1.2375    0.0000 C   0  0  0  0  0  0  0  0  0  0  0  0
   -1.3737    2.0625    0.0000 C   0  0  0  0  0  0  0  0  0  0  0  0
   -0.6592    2.4750    0.0000 C   0  0  0  0  0  0  0  0  0  0  0  0
    0.0553    2.0625    0.0000 C   0  0  0  0  0  0  0  0  0  0  0  0
    0.0553    1.2375    0.0000 C   0  0  0  0  0  0  0  0  0  0  0  0
    0.7697    0.8250    0.0000 C   0  0  0  0  0  0  0  0  0  0  0  0
    1.4842    1.2375    0.0000 C   0  0  0  0  0  0  0  0  0  0  0  0
    1.4842    2.0625    0.0000 N   0  0  0  0  0  0  0  0  0  0  0  0
    0.7697    2.4750    0.0000 C   0  0  0  0  0  0  0  0  0  0  0  0
   -0.6592   -0.8250    0.0000 N   0  0  0  0  0  0  0  0  0  0  0  0
    0.0553   -1.2375    0.0000 C   0  0  0  0  0  0  0  0  0  0  0  0
    0.0553   -2.0625    0.0000 C   0  0  0  0  0  0  0  0  0  0  0  0
   -0.6592   -2.4750    0.0000 N   0  0  0  0  0  0  0  0  0  0  0  0
   -1.3737   -2.0625    0.0000 C   0  0  0  0  0  0  0  0  0  0  0  0
   -1.3737   -1.2375    0.0000 C   0  0  0  0  0  0  0  0  0  0  0  0
    0.1658    0.0000    0.0000 O   0  0  0  0  0  0  0  0  0  0  0  0
  1  2  2  0      
  2  3  1  0      
  3  4  2  0      
  4  5  1  0      
  5  6  2  0      
  6  7  1  0      
  7  8  2  0      
  3  8  1  0      
  8  9  1  0      
  9 10  2  0      
 10 11  1  0      
 11 12  2  0      
  7 12  1  0      
  2 13  1  0      
 13 14  1  0      
 14 15  1  0      
 15 16  1  0      
 16 17  1  0      
 17 18  1  0      
 13 18  1  0      
  2 19  2  0      
M  END

>  <RackCode>
HYCPK72335

>  <Cat. No.>
HY-100984

>  <Product Name>
HA-100

>  <ROW>
H

>  <COLUMN>
18

>  <CAS No.>
84468-24-6

>  <MWt>
277.34

>  <Target>
Myosin; PKA; PKC; ROCK

>  <Saltdate>
Free Base

>  <Smiles>
O=S(C1=CC=CC2=C1C=CN=C2)(N3CCNCC3)=O

>  <Solvent>
DMSO Solution

>  <Batch No.>
27952

>  <Quantity>
10mM  * 50uL

>  <Pathway>
Cell Cycle/DNA Damage; Cytoskeleton; Epigenetics; Stem Cell/Wnt; TGF-beta/Smad

>  <Synonyms>


>  <Formula>
C13H15N3O2S

>  <Research_Area>
Cancer

>  <Clinical_Information>
No Development Reported

>  <SUPPLIER>
MedChemExpress

$$$$
Untitled Document
  ChemDraw09111716092D

 55 56  0  0  0  0  0  0  0  0999 V2000
    2.5803    1.3095    0.0000 C   0  0  0  0  0  0  0  0  0  0  0  0
    3.0653    1.9770    0.0000 C   0  0  0  0  0  0  0  0  0  0  0  0
    3.8499    1.7220    0.0000 C   0  0  0  0  0  0  0  0  0  0  0  0
    3.8499    0.8970    0.0000 C   0  0  0  0  0  0  0  0  0  0  0  0
    3.0653    0.6421    0.0000 C   0  0  0  0  0  0  0  0  0  0  0  0
    1.8659    0.8970    0.0000 C   0  0  0  0  0  0  0  0  0  0  0  0
    1.1514    1.3095    0.0000 O   0  0  0  0  0  0  0  0  0  0  0  0
    1.8659    0.0720    0.0000 N   0  0  0  0  0  0  0  0  0  0  0  0
    1.1514   -0.3405    0.0000 C   0  0  0  0  0  0  0  0  0  0  0  0
    0.4369    0.0720    0.0000 C   0  0  0  0  0  0  0  0  0  0  0  0
    0.4369    0.8970    0.0000 C   0  0  0  0  0  0  0  0  0  0  0  0
   -0.2775    1.3095    0.0000 C   0  0  0  0  0  0  0  0  0  0  0  0
   -0.9920    0.8970    0.0000 C   0  0  0  0  0  0  0  0  0  0  0  0
   -0.9920    0.0720    0.0000 C   0  0  0  0  0  0  0  0  0  0  0  0
   -0.2775   -0.3405    0.0000 C   0  0  0  0  0  0  0  0  0  0  0  0
   -1.7065    1.3095    0.0000 F   0  0  0  0  0  0  0  0  0  0  0  0
    1.1514   -1.1655    0.0000 C   0  0  0  0  0  0  0  0  0  0  0  0
    0.4369   -1.5780    0.0000 C   0  0  0  0  0  0  0  0  0  0  0  0
    0.4369   -2.4030    0.0000 C   0  0  0  0  0  0  0  0  0  0  0  0
    1.1514   -2.8155    0.0000 C   0  0  0  0  0  0  0  0  0  0  0  0
    1.8659   -2.4030    0.0000 C   0  0  0  0  0  0  0  0  0  0  0  0
    1.8659   -1.5780    0.0000 C   0  0  0  0  0  0  0  0  0  0  0  0
    1.1514   -3.6405    0.0000 F   0  0  0  0  0  0  0  0  0  0  0  0
    1.8659    1.7220    0.0000 N   0  0  0  0  0  0  0  0  0  0  0  0
    1.8659    2.5470    0.0000 C   0  0  0  0  0  0  0  0  0  0  0  0
    1.1514    2.9595    0.0000 C   0  0  0  0  0  0  0  0  0  0  0  0
    1.1514    3.7845    0.0000 C   0  0  0  0  0  0  0  0  0  0  0  0
    0.4369    4.1970    0.0000 C   0  0  0  0  0  0  0  0  0  0  0  0
    0.4369    5.0220    0.0000 C   0  0  0  0  0  0  0  0  0  0  0  0
    2.5803    2.9595    0.0000 O   0  0  0  0  0  0  0  0  0  0  0  0
    0.4369    2.5470    0.0000 N   0  0  0  0  0  0  0  0  0  0  0  0
   -0.2775    2.9595    0.0000 C   0  0  0  0  0  0  0  0  0  0  0  0
   -0.9920    2.5470    0.0000 C   0  0  0  0  0  0  0  0  0  0  0  0
   -1.4045    3.2615    0.0000 C   0  0  0  0  0  0  0  0  0  0  0  0
   -0.9920    3.9760    0.0000 C   0  0  0  0  0  0  0  0  0  0  0  0
   -0.2775    3.7845    0.0000 O   0  0  0  0  0  0  0  0  0  0  0  0
   -1.7065    2.1345    0.0000 N   0  0  0  0  0  0  0  0  0  0  0  0
   -2.4210    2.5470    0.0000 C   0  0  0  0  0  0  0  0  0  0  0  0
   -3.1354    2.1345    0.0000 C   0  0  0  0  0  0  0  0  0  0  0  0
   -3.1354    1.3095    0.0000 C   0  0  0  0  0  0  0  0  0  0  0  0
   -2.4210    3.3720    0.0000 O   0  0  0  0  0  0  0  0  0  0  0  0
   -3.8499    2.5470    0.0000 C   0  0  0  0  0  0  0  0  0  0  0  0
   -0.5795    1.8326    0.0000 C   0  0  0  0  0  0  0  0  0  0  0  0
    0.2455    1.8326    0.0000 C   0  0  0  0  0  0  0  0  0  0  0  0
   -0.2775    5.4345    0.0000 N   0  0  0  0  0  0  0  0  0  0  0  0
   -0.2775    6.2595    0.0000 C   0  0  0  0  0  0  0  0  0  0  0  0
   -0.9920    6.6720    0.0000 N   0  0  0  0  0  0  0  0  0  0  0  0
    0.4369    6.6720    0.0000 N   0  0  0  0  0  0  0  0  0  0  0  0
    0.4709   -5.9576    0.0000 C   0  0  0  0  0  0  0  0  0  0  0  0
    1.2959   -5.9576    0.0000 C   0  0  0  0  0  0  0  0  0  0  0  0
    2.1209   -5.9576    0.0000 F   0  0  0  0  0  0  0  0  0  0  0  0
    1.7084   -5.2431    0.0000 F   0  0  0  0  0  0  0  0  0  0  0  0
    1.7084   -6.6720    0.0000 F   0  0  0  0  0  0  0  0  0  0  0  0
    0.0584   -6.6720    0.0000 O   0  0  0  0  0  0  0  0  0  0  0  0
    0.0584   -5.2431    0.0000 O   0  0  0  0  0  0  0  0  0  0  0  0
  1  2  1  0      
  2  3  1  0      
  3  4  1  0      
  4  5  1  0      
  1  5  1  0      
  6  7  2  0      
  6  8  1  0      
  1  6  1  0      
 10 11  1  0      
 11 12  2  0      
 12 13  1  0      
 13 14  2  0      
 14 15  1  0      
 10 15  2  0      
 13 16  1  0      
  9 10  1  0      
 17 18  1  0      
 18 19  2  0      
 19 20  1  0      
 20 21  2  0      
 21 22  1  0      
 17 22  2  0      
 20 23  1  0      
  9 17  1  0      
  8  9  1  0      
 25 26  1  0      
 26 27  1  0      
 27 28  1  0      
 28 29  1  0      
 25 30  2  0      
 32 33  1  0      
 33 34  1  0      
 34 35  1  0      
 32 36  2  0      
 38 39  1  0      
 39 40  1  0      
 38 41  2  0      
 39 42  1  0      
 37 38  1  0      
 33 37  1  0      
 43 44  1  0      
 33 43  1  0      
 31 32  1  0      
 26 31  1  1      
 46 47  2  0      
 46 48  1  0      
 45 46  1  0      
 29 45  1  0      
 24 25  1  0      
  1 24  1  0      
 49 50  1  0      
 50 51  1  0      
 50 52  1  0      
 50 53  1  0      
 49 54  1  0      
 49 55  2  0      
M  END

>  <RackCode>
HYCPK72335

>  <Cat. No.>
HY-12220A

>  <Product Name>
MM-102 (TFA)

>  <ROW>
I

>  <COLUMN>
18

>  <CAS No.>
1883545-52-5

>  <MWt>
783.83

>  <Target>
Histone Methyltransferase

>  <Saltdate>
Trifluoroacetate

>  <Smiles>
O=C(C1(NC([C@@H](NC(C(NC(C(C)C)=O)(CC)CC)=O)CCCNC(N)=N)=O)CCCC1)NC(C2=CC=C(F)C=C2)C3=CC=C(F)C=C3.FC(F)(F)C(O)=O

>  <Solvent>
DMSO Solution

>  <Batch No.>
113504

>  <Quantity>
10mM  * 50uL

>  <Pathway>
Epigenetics

>  <Synonyms>
HMTase Inhibitor IX (TFA)

>  <Formula>
C37H50F5N7O6

>  <Research_Area>
Cancer

>  <Clinical_Information>
No Development Reported

>  <SUPPLIER>
MedChemExpress

$$$$
Untitled Document
  ChemDraw05292310042D

 30 32  0  0  0  0  0  0  0  0999 V2000
   -2.7661   -1.0897    0.0000 C   0  0  0  0  0  0  0  0  0  0  0  0
   -2.7661   -1.9147    0.0000 N   0  0  0  0  0  0  0  0  0  0  0  0
   -2.0516   -2.3272    0.0000 C   0  0  0  0  0  0  0  0  0  0  0  0
   -1.3372   -1.9147    0.0000 C   0  0  0  0  0  0  0  0  0  0  0  0
   -1.3372   -1.0897    0.0000 C   0  0  0  0  0  0  0  0  0  0  0  0
   -2.0516   -0.6772    0.0000 N   0  0  0  0  0  0  0  0  0  0  0  0
   -1.8801   -3.1342    0.0000 N   0  0  0  0  0  0  0  0  0  0  0  0
   -1.0596   -3.2204    0.0000 C   0  0  0  0  0  0  0  0  0  0  0  0
   -0.7241   -2.4668    0.0000 C   0  0  0  0  0  0  0  0  0  0  0  0
   -0.6227   -0.6772    0.0000 C   0  0  0  0  0  0  0  0  0  0  0  0
    0.0918   -1.0897    0.0000 C   0  0  0  0  0  0  0  0  0  0  0  0
    0.8062   -0.6772    0.0000 C   0  0  0  0  0  0  0  0  0  0  0  0
    0.8062    0.1478    0.0000 C   0  0  0  0  0  0  0  0  0  0  0  0
    0.0918    0.5603    0.0000 C   0  0  0  0  0  0  0  0  0  0  0  0
   -0.6227    0.1478    0.0000 C   0  0  0  0  0  0  0  0  0  0  0  0
    1.5909   -0.9322    0.0000 C   0  0  0  0  0  0  0  0  0  0  0  0
    2.0758   -0.2647    0.0000 C   0  0  0  0  0  0  0  0  0  0  0  0
    1.5909    0.4027    0.0000 N   0  0  0  0  0  0  0  0  0  0  0  0
    1.8044    1.1996    0.0000 C   0  0  0  0  0  0  0  0  0  0  0  0
    2.6013    1.4131    0.0000 C   0  0  0  0  0  0  0  0  0  0  0  0
    2.8148    2.2100    0.0000 C   0  0  0  0  0  0  0  0  0  0  0  0
    3.6117    2.4235    0.0000 N   0  0  0  0  0  0  0  0  0  0  0  0
    3.8252    3.2204    0.0000 C   0  0  0  0  0  0  0  0  0  0  0  0
    4.1951    1.8402    0.0000 C   0  0  0  0  0  0  0  0  0  0  0  0
   -3.4806   -0.6772    0.0000 S   0  0  0  0  0  0  0  0  0  0  0  0
   -4.1951   -0.2647    0.0000 C   0  0  0  0  0  0  0  0  0  0  0  0
   -3.0681    0.0372    0.0000 O   0  0  0  0  0  0  0  0  0  0  0  0
   -3.8931   -1.3917    0.0000 O   0  0  0  0  0  0  0  0  0  0  0  0
    2.0311   -2.4336    0.0000 H   0  0  0  0  0  0  0  0  0  0  0  0
    2.8561   -2.4336    0.0000 Cl  0  0  0  0  0  0  0  0  0  0  0  0
  1  2  2  0      
  2  3  1  0      
  3  4  2  0      
  4  5  1  0      
  5  6  2  0      
  6  1  1  0      
  3  7  1  0      
  7  8  1  0      
  8  9  2  0      
  9  4  1  0      
  5 10  1  0      
 10 11  2  0      
 11 12  1  0      
 12 13  2  0      
 13 14  1  0      
 14 15  2  0      
 15 10  1  0      
 12 16  1  0      
 16 17  2  0      
 17 18  1  0      
 18 13  1  0      
 18 19  1  0      
 19 20  1  0      
 20 21  1  0      
 21 22  1  0      
 22 23  1  0      
 22 24  1  0      
  1 25  1  0      
 25 26  1  0      
 25 27  2  0      
 25 28  2  0      
 29 30  1  0      
M  END

>  <RackCode>
HYCPK72335

>  <Cat. No.>
HY-141703A

>  <Product Name>
DC-BPi-11 (hydrochloride)

>  <ROW>
J

>  <COLUMN>
18

>  <CAS No.>


>  <MWt>
433.95

>  <Target>
Epigenetic Reader Domain

>  <Saltdate>
Hydrochloride

>  <Smiles>
CN(C)CCCN1C=CC2=C1C=CC(C3=NC(S(C)(=O)=O)=NC4=C3C=CN4)=C2.[H]Cl

>  <Solvent>
DMSO Solution

>  <Batch No.>
273103

>  <Quantity>
10mM  * 50uL

>  <Pathway>
Epigenetics

>  <Synonyms>


>  <Formula>
C20H24ClN5O2S

>  <Research_Area>
Cancer

>  <Clinical_Information>
No Development Reported

>  <SUPPLIER>
MedChemExpress

$$$$
Untitled Document
  ChemDraw07101911082D

 36 40  0  0  0  0  0  0  0  0999 V2000
   -2.8579    0.8250    0.0000 N   0  0  0  0  0  0  0  0  0  0  0  0
   -2.8579    0.0000    0.0000 C   0  0  0  0  0  0  0  0  0  0  0  0
   -2.1434   -0.4125    0.0000 C   0  0  0  0  0  0  0  0  0  0  0  0
   -1.4289    0.0000    0.0000 N   0  0  0  0  0  0  0  0  0  0  0  0
   -1.4289    0.8250    0.0000 C   0  0  0  0  0  0  0  0  0  0  0  0
   -2.1434    1.2375    0.0000 C   0  0  0  0  0  0  0  0  0  0  0  0
   -3.5724    1.2375    0.0000 C   0  0  0  0  0  0  0  0  0  0  0  0
   -3.5724    2.0625    0.0000 O   0  0  0  0  0  0  0  0  0  0  0  0
   -4.2868    0.8250    0.0000 O   0  0  0  0  0  0  0  0  0  0  0  0
   -3.5724   -0.4125    0.0000 C   0  0  0  0  0  0  0  0  0  0  0  0
   -0.7145   -0.4125    0.0000 C   0  0  0  0  0  0  0  0  0  0  0  0
   -0.7145   -1.2375    0.0000 O   0  0  0  0  0  0  0  0  0  0  0  0
    2.1434   -0.4125    0.0000 N   0  0  0  0  0  0  0  0  0  0  0  0
    2.8579    0.0000    0.0000 C   0  0  0  0  0  0  0  0  0  0  0  0
    2.8579    0.8250    0.0000 C   0  0  0  0  0  0  0  0  0  0  0  0
    2.1434    1.2375    0.0000 C   0  0  0  0  0  0  0  0  0  0  0  0
    1.4289    0.8250    0.0000 C   0  0  0  0  0  0  0  0  0  0  0  0
    0.7145    1.2375    0.0000 C   0  0  0  0  0  0  0  0  0  0  0  0
   -0.0000    0.8250    0.0000 C   0  0  0  0  0  0  0  0  0  0  0  0
   -0.0000    0.0000    0.0000 C   0  0  0  0  0  0  0  0  0  0  0  0
    0.7145   -0.4125    0.0000 C   0  0  0  0  0  0  0  0  0  0  0  0
    1.4289    0.0000    0.0000 C   0  0  0  0  0  0  0  0  0  0  0  0
    2.1434    2.0625    0.0000 Cl  0  0  0  0  0  0  0  0  0  0  0  0
    3.5724   -0.4125    0.0000 C   0  0  0  0  0  0  0  0  0  0  0  0
    4.2868    0.0000    0.0000 C   0  0  0  0  0  0  0  0  0  0  0  0
    5.0013   -0.4125    0.0000 C   0  0  0  0  0  0  0  0  0  0  0  0
    5.0013   -1.2375    0.0000 C   0  0  0  0  0  0  0  0  0  0  0  0
    4.2868   -1.6500    0.0000 C   0  0  0  0  0  0  0  0  0  0  0  0
    3.5724   -1.2375    0.0000 C   0  0  0  0  0  0  0  0  0  0  0  0
    5.7158   -1.6500    0.0000 C   0  0  0  0  0  0  0  0  0  0  0  0
    6.4302   -1.2375    0.0000 C   0  0  0  0  0  0  0  0  0  0  0  0
    6.4302   -2.0625    0.0000 C   0  0  0  0  0  0  0  0  0  0  0  0
    5.0013   -2.0625    0.0000 N   0  0  0  0  0  0  0  0  0  0  0  0
   -5.0013    1.2375    0.0000 C   0  0  0  0  0  0  0  0  0  0  0  0
   -5.7158    0.8250    0.0000 C   0  0  0  0  0  0  0  0  0  0  0  0
   -6.4302    1.2375    0.0000 C   0  0  0  0  0  0  0  0  0  0  0  0
  1  2  1  0      
  2  3  1  0      
  3  4  1  0      
  4  5  1  0      
  5  6  1  0      
  1  6  1  0      
  7  8  2  0      
  7  9  1  0      
  1  7  1  0      
  2 10  1  1      
 11 12  2  0      
 13 14  2  0      
 14 15  1  0      
 15 16  2  0      
 16 17  1  0      
 17 18  2  0      
 18 19  1  0      
 19 20  2  0      
 20 21  1  0      
 21 22  2  0      
 13 22  1  0      
 17 22  1  0      
 16 23  1  0      
 24 25  1  0      
 25 26  2  0      
 26 27  1  0      
 27 28  2  0      
 28 29  1  0      
 24 29  2  0      
 30 31  1  0      
 31 32  1  0      
 30 32  1  0      
 30 33  1  0      
 27 30  1  0      
 14 24  1  0      
 11 20  1  0      
  4 11  1  0      
 34 35  1  0      
 35 36  1  0      
  9 34  1  0      
M  END

>  <RackCode>
HYCPK72335

>  <Cat. No.>
HY-128352

>  <Product Name>
SMYD3-IN-1

>  <ROW>
K

>  <COLUMN>
18

>  <CAS No.>
2095160-79-3

>  <MWt>
507.02

>  <Target>
Histone Methyltransferase

>  <Saltdate>
Free Base

>  <Smiles>
O=C(N1[C@H](C)CN(C(C2=CC=C3C(Cl)=CC(C4=CC=C(C5(N)CC5)C=C4)=NC3=C2)=O)CC1)OCCC

>  <Solvent>
DMSO Solution

>  <Batch No.>
251380

>  <Quantity>
10mM  * 50uL

>  <Pathway>
Epigenetics

>  <Synonyms>


>  <Formula>
C28H31ClN4O3

>  <Research_Area>
Cancer

>  <Clinical_Information>
No Development Reported

>  <SUPPLIER>
MedChemExpress

$$$$
Untitled Document
  ChemDraw09212008322D

 43 46  0  0  0  0  0  0  0  0999 V2000
    5.9485    1.1347    0.0000 O   0  0  0  0  0  0  0  0  0  0  0  0
    5.1639    0.8797    0.0000 C   0  0  0  0  0  0  0  0  0  0  0  0
    4.9089    0.0951    0.0000 N   0  0  0  0  0  0  0  0  0  0  0  0
    4.0839    0.0951    0.0000 C   0  0  0  0  0  0  0  0  0  0  0  0
    3.8290    0.8797    0.0000 C   0  0  0  0  0  0  0  0  0  0  0  0
    3.0753    1.2153    0.0000 C   0  0  0  0  0  0  0  0  0  0  0  0
    2.4079    0.7304    0.0000 N   0  0  0  0  0  0  0  0  0  0  0  0
    1.6542    1.0659    0.0000 C   0  0  0  0  0  0  0  0  0  0  0  0
    0.9868    0.5810    0.0000 C   0  0  0  0  0  0  0  0  0  0  0  0
    0.2331    0.9165    0.0000 N   0  0  0  0  0  0  0  0  0  0  0  0
   -0.4343    0.4316    0.0000 C   0  0  0  0  0  0  0  0  0  0  0  0
   -1.1880    0.7672    0.0000 C   0  0  0  0  0  0  0  0  0  0  0  0
   -1.2743    1.5877    0.0000 N   0  0  0  0  0  0  0  0  0  0  0  0
   -2.0279    1.9232    0.0000 C   0  0  0  0  0  0  0  0  0  0  0  0
   -2.6954    1.4383    0.0000 C   0  0  0  0  0  0  0  0  0  0  0  0
   -2.6954    0.6133    0.0000 O   0  0  0  0  0  0  0  0  0  0  0  0
   -3.4800    0.3584    0.0000 C   0  0  0  0  0  0  0  0  0  0  0  0
   -3.7349   -0.4263    0.0000 N   0  0  0  0  0  0  0  0  0  0  0  0
   -4.5196   -0.6812    0.0000 C   0  0  0  0  0  0  0  0  0  0  0  0
   -4.5196   -1.5062    0.0000 C   0  0  0  0  0  0  0  0  0  0  0  0
   -5.2340   -1.9187    0.0000 C   0  0  0  0  0  0  0  0  0  0  0  0
   -5.2340   -2.7437    0.0000 N   0  0  0  0  0  0  0  0  0  0  0  0
   -5.9485   -1.5062    0.0000 N   0  0  0  0  0  0  0  0  0  0  0  0
   -5.9485   -0.6812    0.0000 C   0  0  0  0  0  0  0  0  0  0  0  0
   -5.2340   -0.2687    0.0000 N   0  0  0  0  0  0  0  0  0  0  0  0
   -3.7349   -1.7611    0.0000 N   0  0  0  0  0  0  0  0  0  0  0  0
   -3.2500   -1.0937    0.0000 C   0  0  0  0  0  0  0  0  0  0  0  0
   -3.9649    1.0258    0.0000 C   0  0  0  0  0  0  0  0  0  0  0  0
   -4.7899    1.0258    0.0000 O   0  0  0  0  0  0  0  0  0  0  0  0
   -3.4800    1.6932    0.0000 C   0  0  0  0  0  0  0  0  0  0  0  0
   -3.7349    2.4779    0.0000 O   0  0  0  0  0  0  0  0  0  0  0  0
   -2.1142    2.7437    0.0000 O   0  0  0  0  0  0  0  0  0  0  0  0
   -0.6068    2.0726    0.0000 C   0  0  0  0  0  0  0  0  0  0  0  0
    0.1469    1.7370    0.0000 C   0  0  0  0  0  0  0  0  0  0  0  0
    1.5680    1.8864    0.0000 O   0  0  0  0  0  0  0  0  0  0  0  0
    2.9891    2.0358    0.0000 C   0  0  0  0  0  0  0  0  0  0  0  0
    3.6565    2.5207    0.0000 C   0  0  0  0  0  0  0  0  0  0  0  0
    4.4102    2.1851    0.0000 C   0  0  0  0  0  0  0  0  0  0  0  0
    4.4964    1.3646    0.0000 C   0  0  0  0  0  0  0  0  0  0  0  0
    0.0474   -1.2203    0.0000 H   0  0  0  0  0  0  0  0  0  0  0  0
    0.8724   -1.2203    0.0000 Cl  0  0  0  0  0  0  0  0  0  0  0  0
    0.0474   -1.8219    0.0000 H   0  0  0  0  0  0  0  0  0  0  0  0
    0.8724   -1.8219    0.0000 Cl  0  0  0  0  0  0  0  0  0  0  0  0
  1  2  2  0      
  2  3  1  0      
  3  4  1  0      
  4  5  1  0      
  5  6  2  0      
  6  7  1  0      
  7  8  1  0      
  8  9  1  0      
  9 10  1  0      
 10 11  1  0      
 11 12  1  0      
 12 13  1  0      
 13 14  1  0      
 15 14  1  1      
 15 16  1  0      
 16 17  1  0      
 17 18  1  1      
 18 19  1  0      
 19 20  2  0      
 20 21  1  0      
 21 22  1  0      
 21 23  2  0      
 23 24  1  0      
 24 25  2  0      
 19 25  1  0      
 20 26  1  0      
 26 27  2  0      
 18 27  1  0      
 17 28  1  0      
 28 29  1  6      
 28 30  1  0      
 15 30  1  0      
 30 31  1  6      
 14 32  2  0      
 13 33  1  0      
 33 34  1  0      
 10 34  1  0      
  8 35  2  0      
  6 36  1  0      
 36 37  2  0      
 37 38  1  0      
 38 39  2  0      
  5 39  1  0      
  2 39  1  0      
 40 41  1  0      
 42 43  1  0      
M  END

>  <RackCode>
HYCPK72335

>  <Cat. No.>
HY-108631

>  <Product Name>
EB-47 (dihydrochloride)

>  <ROW>
L

>  <COLUMN>
18

>  <CAS No.>
1190332-25-2

>  <MWt>
610.45

>  <Target>
PARP

>  <Saltdate>
Hydrochloride

>  <Smiles>
O=C1NCC2=C(C=CC=C21)NC(CN3CCN(CC3)C([C@H]4O[C@H]([C@@H]([C@@H]4O)O)N5C6=C(N=C5)C(N)=NC=N6)=O)=O.[H]Cl.[H]Cl

>  <Solvent>
DMSO Solution

>  <Batch No.>
81102

>  <Quantity>
10mM  * 50uL

>  <Pathway>
Cell Cycle/DNA Damage; Epigenetics

>  <Synonyms>


>  <Formula>
C24H29Cl2N9O6

>  <Research_Area>
Inflammation/Immunology

>  <Clinical_Information>
No Development Reported

>  <SUPPLIER>
MedChemExpress

$$$$
Untitled Document
  ChemDraw05122012472D

 23 25  0  0  0  0  0  0  0  0999 V2000
   -3.0077   -1.2862    0.0000 N   0  0  0  0  0  0  0  0  0  0  0  0
   -3.4927   -0.6187    0.0000 O   0  0  0  0  0  0  0  0  0  0  0  0
   -3.0077    0.0487    0.0000 N   0  0  0  0  0  0  0  0  0  0  0  0
   -2.2231   -0.2062    0.0000 C   0  0  0  0  0  0  0  0  0  0  0  0
   -2.2231   -1.0313    0.0000 C   0  0  0  0  0  0  0  0  0  0  0  0
   -1.5086    0.2062    0.0000 C   0  0  0  0  0  0  0  0  0  0  0  0
   -0.7942   -0.2062    0.0000 C   0  0  0  0  0  0  0  0  0  0  0  0
   -0.7942   -1.0313    0.0000 C   0  0  0  0  0  0  0  0  0  0  0  0
   -1.5086   -1.4437    0.0000 C   0  0  0  0  0  0  0  0  0  0  0  0
   -0.0797    0.2062    0.0000 N   0  0  0  0  0  0  0  0  0  0  0  0
   -1.5086    1.0313    0.0000 N   0  3  0  0  0  0  0  0  0  0  0  0
   -2.2231    1.4437    0.0000 O   0  0  0  0  0  0  0  0  0  0  0  0
   -0.7942    1.4437    0.0000 O   0  5  0  0  0  0  0  0  0  0  0  0
    0.6348   -0.2062    0.0000 C   0  0  0  0  0  0  0  0  0  0  0  0
    1.3492    0.2062    0.0000 C   0  0  0  0  0  0  0  0  0  0  0  0
    2.0637   -0.2062    0.0000 C   0  0  0  0  0  0  0  0  0  0  0  0
    2.0637   -1.0313    0.0000 C   0  0  0  0  0  0  0  0  0  0  0  0
    1.3492   -1.4437    0.0000 C   0  0  0  0  0  0  0  0  0  0  0  0
    0.6348   -1.0313    0.0000 C   0  0  0  0  0  0  0  0  0  0  0  0
    2.7782    0.2062    0.0000 N   0  3  0  0  0  0  0  0  0  0  0  0
    2.7782    1.0313    0.0000 O   0  0  0  0  0  0  0  0  0  0  0  0
    3.4927   -0.2062    0.0000 O   0  5  0  0  0  0  0  0  0  0  0  0
    2.7782   -1.4437    0.0000 Cl  0  0  0  0  0  0  0  0  0  0  0  0
  1  2  1  0      
  2  3  1  0      
  3  4  2  0      
  4  5  1  0      
  1  5  2  0      
  6  7  2  0      
  7  8  1  0      
  8  9  2  0      
  9  5  1  0      
  6  4  1  0      
  7 10  1  0      
 11 12  2  0      
 11 13  1  0      
  6 11  1  0      
 14 15  1  0      
 15 16  2  0      
 16 17  1  0      
 17 18  2  0      
 18 19  1  0      
 14 19  2  0      
 20 21  2  0      
 20 22  1  0      
 16 20  1  0      
 17 23  1  0      
 10 14  1  0      
M  CHG  4  11   1  13  -1  20   1  22  -1
M  END

>  <RackCode>
HYCPK72335

>  <Cat. No.>
HY-18370

>  <Product Name>
HIF-2¦Á-IN-3

>  <ROW>
M

>  <COLUMN>
18

>  <CAS No.>
313964-19-1

>  <MWt>
335.66

>  <Target>
HIF/HIF Prolyl-Hydroxylase

>  <Saltdate>


>  <Smiles>
O=[N+](C1=C(NC2=CC=C(Cl)C([N+]([O-])=O)=C2)C=CC3=NON=C31)[O-]

>  <Solvent>
DMSO Solution

>  <Batch No.>
63876

>  <Quantity>
10mM  * 50uL

>  <Pathway>
Metabolic Enzyme/Protease

>  <Synonyms>


>  <Formula>
C12H6ClN5O5

>  <Research_Area>
Cancer

>  <Clinical_Information>
No Development Reported

>  <SUPPLIER>
MedChemExpress

$$$$
Untitled Document
  ChemDraw12071815192D

 24 25  0  0  0  0  0  0  0  0999 V2000
    2.3067    2.0062    0.0000 O   0  0  0  0  0  0  0  0  0  0  0  0
    2.3067    1.1812    0.0000 C   0  0  0  0  0  0  0  0  0  0  0  0
    1.5923    0.7687    0.0000 C   0  0  0  0  0  0  0  0  0  0  0  0
    1.5060   -0.0518    0.0000 C   0  0  0  0  0  0  0  0  0  0  0  0
    2.1191   -0.6039    0.0000 N   0  0  0  0  0  0  0  0  0  0  0  0
    0.6990   -0.2233    0.0000 S   0  0  0  0  0  0  0  0  0  0  0  0
    0.2865    0.4911    0.0000 C   0  0  0  0  0  0  0  0  0  0  0  0
   -0.5339    0.5774    0.0000 C   0  0  0  0  0  0  0  0  0  0  0  0
   -1.0189   -0.0901    0.0000 N   0  0  0  0  0  0  0  0  0  0  0  0
   -1.8393   -0.0038    0.0000 C   0  0  0  0  0  0  0  0  0  0  0  0
   -2.1749    0.7498    0.0000 C   0  0  0  0  0  0  0  0  0  0  0  0
   -2.9954    0.8361    0.0000 C   0  0  0  0  0  0  0  0  0  0  0  0
   -3.4803    0.1686    0.0000 C   0  0  0  0  0  0  0  0  0  0  0  0
   -3.1447   -0.5850    0.0000 C   0  0  0  0  0  0  0  0  0  0  0  0
   -3.6297   -1.2525    0.0000 N   0  3  0  0  0  0  0  0  0  0  0  0
   -4.4501   -1.1663    0.0000 O   0  5  0  0  0  0  0  0  0  0  0  0
   -3.2941   -2.0062    0.0000 O   0  0  0  0  0  0  0  0  0  0  0  0
   -2.3243   -0.6713    0.0000 C   0  0  0  0  0  0  0  0  0  0  0  0
   -0.8695    1.3310    0.0000 O   0  0  0  0  0  0  0  0  0  0  0  0
    0.8386    1.1042    0.0000 C   0  0  0  0  0  0  0  0  0  0  0  0
    0.6671    1.9112    0.0000 C   0  0  0  0  0  0  0  0  0  0  0  0
    3.0212    0.7687    0.0000 O   0  0  0  0  0  0  0  0  0  0  0  0
    3.7357    1.1812    0.0000 C   0  0  0  0  0  0  0  0  0  0  0  0
    4.4501    0.7687    0.0000 C   0  0  0  0  0  0  0  0  0  0  0  0
  1  2  2  0      
  2  3  1  0      
  3  4  2  0      
  4  5  1  0      
  4  6  1  0      
  6  7  1  0      
  7  8  1  0      
  8  9  1  0      
  9 10  1  0      
 10 11  2  0      
 11 12  1  0      
 12 13  2  0      
 13 14  1  0      
 14 15  1  0      
 15 16  1  0      
 15 17  2  0      
 14 18  2  0      
 10 18  1  0      
  8 19  2  0      
  7 20  2  0      
  3 20  1  0      
 20 21  1  0      
  2 22  1  0      
 22 23  1  0      
 23 24  1  0      
M  CHG  2  15   1  16  -1
M  END

>  <RackCode>
HYCPK72335

>  <Cat. No.>
HY-121093

>  <Product Name>
DC-S239

>  <ROW>
N

>  <COLUMN>
18

>  <CAS No.>
303141-21-1

>  <MWt>
349.36

>  <Target>
Histone Methyltransferase

>  <Saltdate>


>  <Smiles>
O=C(OCC)C1=C(SC(C(NC2=CC=CC([N+]([O-])=O)=C2)=O)=C1C)N

>  <Solvent>
DMSO Solution

>  <Batch No.>
179206

>  <Quantity>
10mM  * 50uL

>  <Pathway>
Epigenetics

>  <Synonyms>


>  <Formula>
C15H15N3O5S

>  <Research_Area>
Cancer

>  <Clinical_Information>
No Development Reported

>  <SUPPLIER>
MedChemExpress

$$$$
Untitled Document
  ChemDraw05202108542D

 12 13  0  0  0  0  0  0  0  0999 V2000
   -0.3572   -0.2063    0.0000 S   0  0  0  0  0  0  0  0  0  0  0  0
    0.3572    0.2062    0.0000 S   0  0  0  0  0  0  0  0  0  0  0  0
   -1.8253   -0.1293    0.0000 S   0  0  0  0  0  0  0  0  0  0  0  0
   -2.3773    0.4838    0.0000 N   0  0  0  0  0  0  0  0  0  0  0  0
   -1.9648    1.1983    0.0000 C   0  0  0  0  0  0  0  0  0  0  0  0
   -1.1579    1.0267    0.0000 C   0  0  0  0  0  0  0  0  0  0  0  0
   -1.0717    0.2062    0.0000 C   0  0  0  0  0  0  0  0  0  0  0  0
    1.8253    0.1293    0.0000 S   0  0  0  0  0  0  0  0  0  0  0  0
    2.3773   -0.4838    0.0000 N   0  0  0  0  0  0  0  0  0  0  0  0
    1.9648   -1.1983    0.0000 C   0  0  0  0  0  0  0  0  0  0  0  0
    1.1579   -1.0267    0.0000 C   0  0  0  0  0  0  0  0  0  0  0  0
    1.0717   -0.2063    0.0000 C   0  0  0  0  0  0  0  0  0  0  0  0
  1  2  1  0      
  3  4  1  0      
  4  5  2  0      
  5  6  1  0      
  6  7  2  0      
  3  7  1  0      
  1  7  1  0      
  8  9  1  0      
  9 10  2  0      
 10 11  1  0      
 11 12  2  0      
  8 12  1  0      
  2 12  1  0      
M  END

>  <RackCode>
HYCPK72335

>  <Cat. No.>
HY-110127

>  <Product Name>
NU9056

>  <ROW>
O

>  <COLUMN>
18

>  <CAS No.>
1450644-28-6

>  <MWt>
232.37

>  <Target>
Apoptosis; Histone Acetyltransferase

>  <Saltdate>


>  <Smiles>
C1(SSC2=CC=NS2)=CC=NS1

>  <Solvent>
DMSO Solution

>  <Batch No.>
266190

>  <Quantity>
10mM  * 50uL

>  <Pathway>
Apoptosis; Epigenetics

>  <Synonyms>


>  <Formula>
C6H4N2S4

>  <Research_Area>
Cancer

>  <Clinical_Information>
No Development Reported

>  <SUPPLIER>
MedChemExpress

$$$$
Untitled Document
  ChemDraw07262316362D

 32 34  0  0  0  0  0  0  0  0999 V2000
    0.8128    1.3829    0.0000 O   0  0  0  0  0  0  0  0  0  0  0  0
    3.3862   -1.4003    0.0000 N   0  0  0  0  0  0  0  0  0  0  0  0
    4.2038   -1.3144    0.0000 O   0  0  0  0  0  0  0  0  0  0  0  0
    4.6871   -1.9796    0.0000 C   0  0  0  0  0  0  0  0  0  0  0  0
   -1.8340    0.8981    0.0000 C   0  0  0  0  0  0  0  0  0  0  0  0
   -2.2450    1.6102    0.0000 C   0  0  0  0  0  0  0  0  0  0  0  0
   -1.4229    1.6102    0.0000 O   0  0  0  0  0  0  0  0  0  0  0  0
   -0.6370    1.9796    0.0000 O   0  0  0  0  0  0  0  0  0  0  0  0
   -4.6871    0.8981    0.0000 Cl  0  0  0  0  0  0  0  0  0  0  0  0
   -4.6871   -0.7490    0.0000 Cl  0  0  0  0  0  0  0  0  0  0  0  0
    0.8127   -0.4088    0.0000 N   0  0  0  0  0  0  0  0  0  0  0  0
    1.5975   -0.1538    0.0000 C   0  0  0  0  0  0  0  0  0  0  0  0
    0.8127   -1.2338    0.0000 C   0  0  0  0  0  0  0  0  0  0  0  0
    2.0824   -0.8213    0.0000 C   0  0  0  0  0  0  0  0  0  0  0  0
    1.9330    0.5998    0.0000 N   0  0  0  0  0  0  0  0  0  0  0  0
    1.5975   -1.4888    0.0000 N   0  0  0  0  0  0  0  0  0  0  0  0
    2.9030   -0.7351    0.0000 C   0  0  0  0  0  0  0  0  0  0  0  0
    2.7536    0.6861    0.0000 C   0  0  0  0  0  0  0  0  0  0  0  0
    3.2385    0.0186    0.0000 N   0  0  0  0  0  0  0  0  0  0  0  0
    0.1476    0.0745    0.0000 C   0  0  0  0  0  0  0  0  0  0  0  0
   -0.6370   -0.1804    0.0000 O   0  0  0  0  0  0  0  0  0  0  0  0
    0.1476    0.8996    0.0000 C   0  0  0  0  0  0  0  0  0  0  0  0
   -1.1220    0.4871    0.0000 C   0  0  0  0  0  0  0  0  0  0  0  0
   -0.6370    1.1546    0.0000 C   0  0  0  0  0  0  0  0  0  0  0  0
   -2.5460    0.4871    0.0000 C   0  0  0  0  0  0  0  0  0  0  0  0
   -3.2606    0.8996    0.0000 C   0  0  0  0  0  0  0  0  0  0  0  0
   -2.5460   -0.3379    0.0000 C   0  0  0  0  0  0  0  0  0  0  0  0
   -3.9750    0.4871    0.0000 C   0  0  0  0  0  0  0  0  0  0  0  0
   -3.2605   -0.7504    0.0000 C   0  0  0  0  0  0  0  0  0  0  0  0
   -3.9750   -0.3379    0.0000 C   0  0  0  0  0  0  0  0  0  0  0  0
   -1.8340    0.0760    0.0000 H   0  0  0  0  0  0  0  0  0  0  0  0
   -0.2923   -1.8687    0.0000 Cl  0  0  0  0  0  0  0  0  0  0  0  0
 22  1  1  1      
  2  3  1  0      
  2 17  2  0      
  3  4  1  0      
  5  6  1  6      
  5  7  1  1      
  5 23  1  0      
  5 25  1  0      
 24  8  1  1      
  9 28  1  0      
 10 30  1  0      
 11 12  1  0      
 11 13  1  0      
 20 11  1  6      
 12 14  2  0      
 12 15  1  0      
 13 16  2  0      
 14 16  1  0      
 14 17  1  0      
 15 18  1  0      
 17 19  1  0      
 18 19  2  0      
 20 21  1  0      
 20 22  1  0      
 21 23  1  0      
 22 24  1  0      
 23 24  1  0      
 23 31  1  1      
 25 26  2  0      
 25 27  1  0      
 26 28  1  0      
 27 29  2  0      
 28 30  2  0      
 29 30  1  0      
M  END

>  <RackCode>
HYCPK72335

>  <Cat. No.>
HY-153422

>  <Product Name>
PRMT5-IN-29

>  <ROW>
P

>  <COLUMN>
18

>  <CAS No.>
2242788-69-6

>  <MWt>
492.74

>  <Target>
Histone Methyltransferase

>  <Saltdate>
Hydrochloride

>  <Smiles>
O[C@H]([C@@H]1O)[C@@H](O[C@]1([H])[C@](O)(C(C=C2)=CC(Cl)=C2Cl)C)N3C(NC=N/C4=N\OC)=C4N=C3.Cl

>  <Solvent>
DMSO Solution

>  <Batch No.>
285568

>  <Quantity>
10mM  * 50uL

>  <Pathway>
Epigenetics

>  <Synonyms>


>  <Formula>
C18H20Cl3N5O5

>  <Research_Area>
Cancer

>  <Clinical_Information>
No Development Reported

>  <SUPPLIER>
MedChemExpress

$$$$
Untitled Document
  ChemDraw05101917272D

 27 30  0  0  0  0  0  0  0  0999 V2000
    0.7347    1.4803    0.0000 O   0  0  0  0  0  0  0  0  0  0  0  0
   -0.0903    1.4803    0.0000 C   0  0  0  0  0  0  0  0  0  0  0  0
   -0.5752    2.1477    0.0000 N   0  0  0  0  0  0  0  0  0  0  0  0
   -1.3598    1.8928    0.0000 C   0  0  0  0  0  0  0  0  0  0  0  0
   -1.3598    1.0678    0.0000 C   0  0  0  0  0  0  0  0  0  0  0  0
   -2.0743    0.6553    0.0000 C   0  0  0  0  0  0  0  0  0  0  0  0
   -2.7888    1.0678    0.0000 C   0  0  0  0  0  0  0  0  0  0  0  0
   -2.7888    1.8928    0.0000 C   0  0  0  0  0  0  0  0  0  0  0  0
   -2.0743    2.3053    0.0000 C   0  0  0  0  0  0  0  0  0  0  0  0
   -0.5752    0.8128    0.0000 C   0  0  0  0  0  0  0  0  0  0  0  0
   -0.3203    0.0282    0.0000 C   0  0  0  0  0  0  0  0  0  0  0  0
    0.4766   -0.1853    0.0000 C   0  0  0  0  0  0  0  0  0  0  0  0
    1.0600    0.3980    0.0000 C   0  0  0  0  0  0  0  0  0  0  0  0
    1.8569    0.1845    0.0000 C   0  0  0  0  0  0  0  0  0  0  0  0
    2.0704   -0.6124    0.0000 C   0  0  0  0  0  0  0  0  0  0  0  0
    2.8673   -0.8259    0.0000 O   0  0  0  0  0  0  0  0  0  0  0  0
    3.4506   -0.2425    0.0000 C   0  0  0  0  0  0  0  0  0  0  0  0
    1.4870   -1.1957    0.0000 C   0  0  0  0  0  0  0  0  0  0  0  0
    0.6901   -0.9822    0.0000 C   0  0  0  0  0  0  0  0  0  0  0  0
   -0.9037   -0.5552    0.0000 C   0  0  0  0  0  0  0  0  0  0  0  0
   -0.6901   -1.3521    0.0000 C   0  0  0  0  0  0  0  0  0  0  0  0
   -1.2735   -1.9354    0.0000 C   0  0  0  0  0  0  0  0  0  0  0  0
   -2.0704   -1.7219    0.0000 C   0  0  0  0  0  0  0  0  0  0  0  0
   -2.6537   -2.3053    0.0000 O   0  0  0  0  0  0  0  0  0  0  0  0
   -3.4506   -2.0917    0.0000 C   0  0  0  0  0  0  0  0  0  0  0  0
   -2.2839   -0.9250    0.0000 C   0  0  0  0  0  0  0  0  0  0  0  0
   -1.7005   -0.3416    0.0000 C   0  0  0  0  0  0  0  0  0  0  0  0
  1  2  2  0      
  2  3  1  0      
  3  4  1  0      
  4  5  2  0      
  5  6  1  0      
  6  7  2  0      
  7  8  1  0      
  8  9  2  0      
  4  9  1  0      
  5 10  1  0      
  2 10  1  0      
 10 11  2  0      
 11 12  1  0      
 12 13  2  0      
 13 14  1  0      
 14 15  2  0      
 15 16  1  0      
 16 17  1  0      
 15 18  1  0      
 18 19  2  0      
 12 19  1  0      
 11 20  1  0      
 20 21  2  0      
 21 22  1  0      
 22 23  2  0      
 23 24  1  0      
 24 25  1  0      
 23 26  1  0      
 26 27  2  0      
 20 27  1  0      
M  END

>  <RackCode>
HYCPK72335

>  <Cat. No.>
HY-18965

>  <Product Name>
TAS-301

>  <ROW>
A

>  <COLUMN>
19

>  <CAS No.>
193620-69-8

>  <MWt>
357.40

>  <Target>
PKC

>  <Saltdate>
Free Base

>  <Smiles>
O=C1NC2=C(C=CC=C2)/C1=C(C3=CC=C(OC)C=C3)/C4=CC=C(OC)C=C4

>  <Solvent>
DMSO Solution

>  <Batch No.>
18335

>  <Quantity>
10mM  * 50uL

>  <Pathway>
Epigenetics; TGF-beta/Smad

>  <Synonyms>


>  <Formula>
C23H19NO3

>  <Research_Area>
Cardiovascular Disease

>  <Clinical_Information>
No Development Reported

>  <SUPPLIER>
MedChemExpress

$$$$
Untitled Document
  ChemDraw01201615112D

 29 31  0  0  0  0  0  0  0  0999 V2000
   -2.5263    1.4068    0.0000 C   0  0  0  0  0  0  0  0  0  0  0  0
   -2.5263    0.5818    0.0000 C   0  0  0  0  0  0  0  0  0  0  0  0
   -1.8110    0.1693    0.0000 C   0  0  0  0  0  0  0  0  0  0  0  0
   -1.0965    0.5818    0.0000 C   0  0  0  0  0  0  0  0  0  0  0  0
   -1.0965    1.4068    0.0000 C   0  0  0  0  0  0  0  0  0  0  0  0
   -1.8110    1.8193    0.0000 C   0  0  0  0  0  0  0  0  0  0  0  0
   -1.6395   -0.6376    0.0000 N   0  0  0  0  0  0  0  0  0  0  0  0
   -0.8190   -0.7239    0.0000 C   0  0  0  0  0  0  0  0  0  0  0  0
   -0.4834    0.0298    0.0000 C   0  0  0  0  0  0  0  0  0  0  0  0
   -3.2383    1.8179    0.0000 C   0  0  0  0  0  0  0  0  0  0  0  0
   -0.3845    1.8179    0.0000 C   0  0  0  0  0  0  0  0  0  0  0  0
   -2.1896   -1.2486    0.0000 C   0  0  0  0  0  0  0  0  0  0  0  0
   -1.9355   -2.0305    0.0000 C   0  0  0  0  0  0  0  0  0  0  0  0
   -2.9946   -1.0777    0.0000 C   0  0  0  0  0  0  0  0  0  0  0  0
   -3.5447   -1.6886    0.0000 C   0  0  0  0  0  0  0  0  0  0  0  0
   -2.4865   -2.6423    0.0000 C   0  0  0  0  0  0  0  0  0  0  0  0
   -3.8932    2.3203    0.0000 N   0  0  0  0  0  0  0  0  0  0  0  0
   -0.3845    2.6408    0.0000 O   0  0  0  0  0  0  0  0  0  0  0  0
    0.3274    1.4068    0.0000 N   0  0  0  0  0  0  0  0  0  0  0  0
    1.0394    1.8179    0.0000 C   0  0  0  0  0  0  0  0  0  0  0  0
    1.7514    1.4068    0.0000 C   0  0  0  0  0  0  0  0  0  0  0  0
    1.7514    0.5818    0.0000 C   0  0  0  0  0  0  0  0  0  0  0  0
    2.4667    0.1693    0.0000 N   0  0  0  0  0  0  0  0  0  0  0  0
    3.1812    0.5818    0.0000 C   0  0  0  0  0  0  0  0  0  0  0  0
    3.1812    1.4068    0.0000 C   0  0  0  0  0  0  0  0  0  0  0  0
    2.4667    1.8193    0.0000 C   0  0  0  0  0  0  0  0  0  0  0  0
    2.4667    2.6423    0.0000 C   0  0  0  0  0  0  0  0  0  0  0  0
    3.8932    0.1708    0.0000 C   0  0  0  0  0  0  0  0  0  0  0  0
    1.0394    0.1708    0.0000 O   0  0  0  0  0  0  0  0  0  0  0  0
  1  2  2  0      
  2  3  1  0      
  3  4  2  0      
  4  5  1  0      
  5  6  2  0      
  6  1  1  0      
  3  7  1  0      
  7  8  1  0      
  8  9  2  0      
  9  4  1  0      
  1 10  1  0      
  5 11  1  0      
  7 12  1  0      
 12 13  1  0      
 12 14  1  0      
 14 15  1  0      
 13 16  1  0      
 10 17  3  0      
 11 18  2  0      
 11 19  1  0      
 19 20  1  0      
 20 21  1  0      
 21 22  1  0      
 22 23  1  0      
 23 24  1  0      
 24 25  2  0      
 25 26  1  0      
 26 21  2  0      
 26 27  1  0      
 24 28  1  0      
 22 29  2  0      
M  END

>  <RackCode>
HYCPK72335

>  <Cat. No.>
HY-15573

>  <Product Name>
EI1

>  <ROW>
B

>  <COLUMN>
19

>  <CAS No.>
1418308-27-6

>  <MWt>
390.48

>  <Target>
Apoptosis; Histone Methyltransferase

>  <Saltdate>
Free Base

>  <Smiles>
CCC(CC)N(C=C1)C2=C1C(C(NCC3=C(C)C=C(C)NC3=O)=O)=CC(C#N)=C2

>  <Solvent>
DMSO Solution

>  <Batch No.>
09984

>  <Quantity>
10mM  * 50uL

>  <Pathway>
Apoptosis; Epigenetics

>  <Synonyms>
KB-145943

>  <Formula>
C23H26N4O2

>  <Research_Area>
Cancer

>  <Clinical_Information>
No Development Reported

>  <SUPPLIER>
MedChemExpress

$$$$
Untitled Document
  ChemDraw08172209142D

 32 33  0  0  0  0  0  0  0  0999 V2000
    5.7792    0.5414    0.0000 Cl  0  0  0  0  0  0  0  0  0  0  0  0
    5.7792   -0.6273    0.0000 Cl  0  0  0  0  0  0  0  0  0  0  0  0
   -5.7792    1.4437    0.0000 C   0  0  0  0  0  0  0  0  0  0  0  0
   -5.0647    1.8563    0.0000 N   0  0  0  0  0  0  0  0  0  0  0  0
   -4.3502    1.4437    0.0000 C   0  0  0  0  0  0  0  0  0  0  0  0
   -3.6358    1.8563    0.0000 C   0  0  0  0  0  0  0  0  0  0  0  0
   -2.9213    1.4437    0.0000 N   0  0  0  0  0  0  0  0  0  0  0  0
   -2.2068    1.8563    0.0000 C   0  0  0  0  0  0  0  0  0  0  0  0
   -1.4924    1.4437    0.0000 C   0  0  0  0  0  0  0  0  0  0  0  0
   -1.4924    0.6187    0.0000 C   0  0  0  0  0  0  0  0  0  0  0  0
   -2.2068    0.2062    0.0000 C   0  0  0  0  0  0  0  0  0  0  0  0
   -2.9213    0.6187    0.0000 C   0  0  0  0  0  0  0  0  0  0  0  0
   -0.7779    0.2062    0.0000 C   0  0  0  0  0  0  0  0  0  0  0  0
   -0.7779   -0.6187    0.0000 C   0  0  0  0  0  0  0  0  0  0  0  0
   -0.0634   -1.0313    0.0000 C   0  0  0  0  0  0  0  0  0  0  0  0
   -0.0634   -1.8563    0.0000 C   0  0  0  0  0  0  0  0  0  0  0  0
    0.6510   -0.6187    0.0000 C   0  0  0  0  0  0  0  0  0  0  0  0
    1.4357   -0.8737    0.0000 N   0  0  0  0  0  0  0  0  0  0  0  0
    1.9206   -0.2062    0.0000 C   0  0  0  0  0  0  0  0  0  0  0  0
    1.4357    0.4612    0.0000 N   0  0  0  0  0  0  0  0  0  0  0  0
    0.6510    0.2062    0.0000 C   0  0  0  0  0  0  0  0  0  0  0  0
   -0.0634    0.6187    0.0000 C   0  0  0  0  0  0  0  0  0  0  0  0
    2.7456   -0.2062    0.0000 C   0  0  0  0  0  0  0  0  0  0  0  0
    3.1581    0.5082    0.0000 C   0  0  0  0  0  0  0  0  0  0  0  0
    2.7456    1.2227    0.0000 O   0  0  0  0  0  0  0  0  0  0  0  0
    1.9206    1.2227    0.0000 C   0  0  0  0  0  0  0  0  0  0  0  0
    3.9831    0.5082    0.0000 C   0  0  0  0  0  0  0  0  0  0  0  0
    4.3956   -0.2062    0.0000 C   0  0  0  0  0  0  0  0  0  0  0  0
    3.9831   -0.9207    0.0000 C   0  0  0  0  0  0  0  0  0  0  0  0
    3.1581   -0.9207    0.0000 C   0  0  0  0  0  0  0  0  0  0  0  0
    2.7456   -1.6352    0.0000 O   0  0  0  0  0  0  0  0  0  0  0  0
    1.9206   -1.6352    0.0000 C   0  0  0  0  0  0  0  0  0  0  0  0
  3  4  1  0      
  4  5  1  0      
  5  6  1  0      
  6  7  1  0      
  7  8  1  0      
  8  9  1  0      
  9 10  1  0      
 10 11  1  0      
 11 12  1  0      
  7 12  1  0      
 10 13  1  0      
 13 14  1  0      
 14 15  2  0      
 15 16  1  0      
 15 17  1  0      
 17 18  1  0      
 18 19  2  0      
 19 20  1  0      
 20 21  1  0      
 17 21  2  0      
 21 22  1  0      
 13 22  2  0      
 19 23  1  0      
 23 24  1  0      
 24 25  1  0      
 25 26  1  0      
 24 27  2  0      
 27 28  1  0      
 28 29  2  0      
 29 30  1  0      
 23 30  2  0      
 30 31  1  0      
 31 32  1  0      
M  END

>  <RackCode>
HYCPK72335

>  <Cat. No.>
HY-15214A

>  <Product Name>
CARM1-IN-3 (dihydrochloride)

>  <ROW>
C

>  <COLUMN>
19

>  <CAS No.>


>  <MWt>
481.46

>  <Target>
Histone Methyltransferase

>  <Saltdate>
Hydrochloride

>  <Smiles>
CNCCN1CCC(C2=CC3=C(N=C(C4=C(OC)C=CC=C4OC)N3)C(C)=C2)CC1.Cl.Cl

>  <Solvent>
DMSO Solution

>  <Batch No.>
284745

>  <Quantity>
10mM  * 50uL

>  <Pathway>
Epigenetics

>  <Synonyms>


>  <Formula>
C24H34Cl2N4O2

>  <Research_Area>
Cancer

>  <Clinical_Information>
No Development Reported

>  <SUPPLIER>
MedChemExpress

$$$$
Untitled Document
  ChemDraw03041916192D

 31 33  0  0  0  0  0  0  0  0999 V2000
    0.0000   -0.8250    0.0000 C   0  0  0  0  0  0  0  0  0  0  0  0
    0.7145   -1.2375    0.0000 C   0  0  0  0  0  0  0  0  0  0  0  0
    1.4289   -0.8250    0.0000 C   0  0  0  0  0  0  0  0  0  0  0  0
    2.1434   -1.2375    0.0000 C   0  0  0  0  0  0  0  0  0  0  0  0
    2.1434   -2.0625    0.0000 C   0  0  0  0  0  0  0  0  0  0  0  0
    1.4289   -2.4750    0.0000 C   0  0  0  0  0  0  0  0  0  0  0  0
    0.7145   -2.0625    0.0000 C   0  0  0  0  0  0  0  0  0  0  0  0
    2.8579   -2.4750    0.0000 O   0  0  0  0  0  0  0  0  0  0  0  0
    2.8579   -0.8250    0.0000 C   0  0  0  0  0  0  0  0  0  0  0  0
    2.8579    0.0000    0.0000 O   0  0  0  0  0  0  0  0  0  0  0  0
    3.5724   -1.2375    0.0000 O   0  0  0  0  0  0  0  0  0  0  0  0
   -2.8579   -0.8250    0.0000 C   0  0  0  0  0  0  0  0  0  0  0  0
   -2.1434   -1.2375    0.0000 C   0  0  0  0  0  0  0  0  0  0  0  0
   -1.4289   -0.8250    0.0000 C   0  0  0  0  0  0  0  0  0  0  0  0
   -0.7145   -1.2375    0.0000 C   0  0  0  0  0  0  0  0  0  0  0  0
   -0.7145   -2.0625    0.0000 C   0  0  0  0  0  0  0  0  0  0  0  0
   -1.4289   -2.4750    0.0000 C   0  0  0  0  0  0  0  0  0  0  0  0
   -2.1434   -2.0625    0.0000 C   0  0  0  0  0  0  0  0  0  0  0  0
   -2.8579    0.0000    0.0000 O   0  0  0  0  0  0  0  0  0  0  0  0
   -3.5724   -1.2375    0.0000 O   0  0  0  0  0  0  0  0  0  0  0  0
   -2.8579   -2.4750    0.0000 O   0  0  0  0  0  0  0  0  0  0  0  0
    1.4289    1.6500    0.0000 C   0  0  0  0  0  0  0  0  0  0  0  0
    0.7145    1.2375    0.0000 C   0  0  0  0  0  0  0  0  0  0  0  0
    0.7145    0.4125    0.0000 C   0  0  0  0  0  0  0  0  0  0  0  0
    0.0000    0.0000    0.0000 C   0  0  0  0  0  0  0  0  0  0  0  0
   -0.7145    0.4125    0.0000 C   0  0  0  0  0  0  0  0  0  0  0  0
   -0.7145    1.2375    0.0000 C   0  0  0  0  0  0  0  0  0  0  0  0
    0.0000    1.6500    0.0000 C   0  0  0  0  0  0  0  0  0  0  0  0
    1.4289    2.4750    0.0000 O   0  0  0  0  0  0  0  0  0  0  0  0
    2.1434    1.2375    0.0000 O   0  0  0  0  0  0  0  0  0  0  0  0
    0.0000    2.4750    0.0000 O   0  0  0  0  0  0  0  0  0  0  0  0
  2  3  1  0      
  3  4  2  0      
  4  5  1  0      
  5  6  1  0      
  6  7  2  0      
  2  7  1  0      
  5  8  2  0      
  9 10  2  0      
  9 11  1  0      
  4  9  1  0      
  1  2  2  0      
 12 13  1  0      
 13 14  1  0      
 14 15  2  0      
 15 16  1  0      
 16 17  2  0      
 17 18  1  0      
 13 18  2  0      
 12 19  2  0      
 12 20  1  0      
 18 21  1  0      
  1 15  1  0      
 22 23  1  0      
 23 24  1  0      
 24 25  2  0      
 25 26  1  0      
 26 27  2  0      
 27 28  1  0      
 23 28  2  0      
 22 29  2  0      
 22 30  1  0      
 28 31  1  0      
  1 25  1  0      
M  END

>  <RackCode>
HYCPK72335

>  <Cat. No.>
HY-122575

>  <Product Name>
Aurintricarboxylic acid

>  <ROW>
D

>  <COLUMN>
19

>  <CAS No.>
4431-00-9

>  <MWt>
422.34

>  <Target>
Apoptosis; Influenza Virus; MicroRNA; P2X Receptor; Topoisomerase

>  <Saltdate>
Free Acid

>  <Smiles>
O=C(C=C/1)C(C(O)=O)=CC1=C(C2=CC(C(O)=O)=C(O)C=C2)\C3=CC(C(O)=O)=C(O)C=C3

>  <Solvent>
DMSO Solution

>  <Batch No.>
229644

>  <Quantity>
10mM  * 50uL

>  <Pathway>
Anti-infection; Apoptosis; Cell Cycle/DNA Damage; Epigenetics; Membrane Transporter/Ion Channel

>  <Synonyms>


>  <Formula>
C22H14O9

>  <Research_Area>
Infection; Inflammation/Immunology; Neurological Disease

>  <Clinical_Information>
No Development Reported

>  <SUPPLIER>
MedChemExpress

$$$$
Untitled Document
  ChemDraw04192213052D

 40 44  0  0  0  0  0  0  0  0999 V2000
    2.2176   -0.9283    0.0000 C   0  0  0  0  0  0  0  0  0  0  0  0
    3.0144   -0.7148    0.0000 C   0  0  0  0  0  0  0  0  0  0  0  0
    3.2280    0.0821    0.0000 C   0  0  0  0  0  0  0  0  0  0  0  0
    4.0249    0.2956    0.0000 C   0  0  0  0  0  0  0  0  0  0  0  0
    4.6082   -0.2878    0.0000 C   0  0  0  0  0  0  0  0  0  0  0  0
    4.3947   -1.0847    0.0000 C   0  0  0  0  0  0  0  0  0  0  0  0
    3.5978   -1.2982    0.0000 C   0  0  0  0  0  0  0  0  0  0  0  0
    2.0040   -1.7252    0.0000 O   0  0  0  0  0  0  0  0  0  0  0  0
    1.6342   -0.3450    0.0000 N   0  0  0  0  0  0  0  0  0  0  0  0
    5.4051   -0.0742    0.0000 N   0  0  0  0  0  0  0  0  0  0  0  0
    5.9885   -0.6576    0.0000 C   0  0  0  0  0  0  0  0  0  0  0  0
    6.7854   -0.4441    0.0000 C   0  0  0  0  0  0  0  0  0  0  0  0
    7.3687   -1.0274    0.0000 C   0  0  0  0  0  0  0  0  0  0  0  0
    5.7749   -1.4545    0.0000 O   0  0  0  0  0  0  0  0  0  0  0  0
    0.8458   -0.5882    0.0000 C   0  0  0  0  0  0  0  0  0  0  0  0
    0.6623   -1.3925    0.0000 C   0  0  0  0  0  0  0  0  0  0  0  0
   -0.1261   -1.6356    0.0000 C   0  0  0  0  0  0  0  0  0  0  0  0
   -0.7309   -1.0745    0.0000 C   0  0  0  0  0  0  0  0  0  0  0  0
   -0.5473   -0.2702    0.0000 C   0  0  0  0  0  0  0  0  0  0  0  0
    0.2411   -0.0270    0.0000 C   0  0  0  0  0  0  0  0  0  0  0  0
   -1.5192   -1.3177    0.0000 N   0  0  0  0  0  0  0  0  0  0  0  0
   -4.2604   -0.7965    0.0000 N   0  0  0  0  0  0  0  0  0  0  0  0
   -3.5171   -0.4386    0.0000 C   0  0  0  0  0  0  0  0  0  0  0  0
   -3.3335    0.3658    0.0000 C   0  0  0  0  0  0  0  0  0  0  0  0
   -3.8479    1.0108    0.0000 N   0  0  0  0  0  0  0  0  0  0  0  0
   -4.6729    1.0108    0.0000 C   0  0  0  0  0  0  0  0  0  0  0  0
   -5.1873    0.3658    0.0000 C   0  0  0  0  0  0  0  0  0  0  0  0
   -5.0037   -0.4386    0.0000 C   0  0  0  0  0  0  0  0  0  0  0  0
   -5.9756    0.6089    0.0000 C   0  0  0  0  0  0  0  0  0  0  0  0
   -6.5804    0.0478    0.0000 C   0  0  0  0  0  0  0  0  0  0  0  0
   -6.3968   -0.7565    0.0000 C   0  0  0  0  0  0  0  0  0  0  0  0
   -5.6084   -0.9997    0.0000 C   0  0  0  0  0  0  0  0  0  0  0  0
   -2.1240   -0.7565    0.0000 C   0  0  0  0  0  0  0  0  0  0  0  0
   -2.9123   -0.9997    0.0000 N   0  0  0  0  0  0  0  0  0  0  0  0
   -2.5452    0.6089    0.0000 C   0  0  0  0  0  0  0  0  0  0  0  0
   -1.9404    0.0478    0.0000 N   0  0  0  0  0  0  0  0  0  0  0  0
   -5.0854    1.7252    0.0000 O   0  0  0  0  0  0  0  0  0  0  0  0
   -4.2604   -1.6215    0.0000 C   0  0  0  0  0  0  0  0  0  0  0  0
   -7.3687    0.2910    0.0000 C   0  0  0  0  0  0  0  0  0  0  0  0
   -3.4354    1.7252    0.0000 C   0  0  0  0  0  0  0  0  0  0  0  0
  1  2  1  0      
  2  3  1  0      
  3  4  2  0      
  4  5  1  0      
  5  6  2  0      
  6  7  1  0      
  2  7  2  0      
  1  8  2  0      
  1  9  1  0      
 11 12  1  0      
 12 13  1  0      
 11 14  2  0      
 10 11  1  0      
  5 10  1  0      
 15 16  1  0      
 16 17  2  0      
 17 18  1  0      
 18 19  2  0      
 19 20  1  0      
 15 20  2  0      
 22 23  1  0      
 23 24  1  0      
 24 25  1  0      
 25 26  1  0      
 26 27  1  0      
 27 28  1  0      
 22 28  1  0      
 29 30  1  0      
 30 31  2  0      
 31 32  1  0      
 28 32  2  0      
 27 29  2  0      
 33 34  1  0      
 35 36  1  0      
 33 36  2  0      
 23 34  2  0      
 24 35  2  0      
 26 37  2  0      
 22 38  1  0      
 30 39  1  0      
 25 40  1  0      
 21 33  1  0      
 18 21  1  0      
  9 15  1  0      
M  END

>  <RackCode>
HYCPK72335

>  <Cat. No.>
HY-144991

>  <Product Name>
Aurora kinase inhibitor-8

>  <ROW>
E

>  <COLUMN>
19

>  <CAS No.>
2133001-88-2

>  <MWt>
535.60

>  <Target>
Aurora Kinase

>  <Saltdate>


>  <Smiles>
O=C(NC1=CC=C(NC2=NC=C(N3C)C(N(C)C4=CC=C(C)C=C4C3=O)=N2)C=C1)C5=CC=C(NC(CC)=O)C=C5

>  <Solvent>
DMSO Solution

>  <Batch No.>
239130

>  <Quantity>
10mM  * 50uL

>  <Pathway>
Cell Cycle/DNA Damage; Epigenetics

>  <Synonyms>


>  <Formula>
C30H29N7O3

>  <Research_Area>
Cancer

>  <Clinical_Information>
No Development Reported

>  <SUPPLIER>
MedChemExpress

$$$$
Untitled Document
  ChemDraw09291615202D

 30 33  0  0  0  0  0  0  0  0999 V2000
   -2.4762   -2.2687    0.0000 N   0  0  0  0  0  0  0  0  0  0  0  0
   -1.7617   -2.6812    0.0000 C   0  0  0  0  0  0  0  0  0  0  0  0
   -1.0473   -2.2687    0.0000 C   0  0  0  0  0  0  0  0  0  0  0  0
   -1.0473   -1.4438    0.0000 N   0  0  0  0  0  0  0  0  0  0  0  0
   -1.7617   -1.0313    0.0000 C   0  0  0  0  0  0  0  0  0  0  0  0
   -2.4762   -1.4438    0.0000 C   0  0  0  0  0  0  0  0  0  0  0  0
   -0.3328   -2.6812    0.0000 C   0  0  0  0  0  0  0  0  0  0  0  0
    2.3657   -0.6188    0.0000 C   0  0  0  0  0  0  0  0  0  0  0  0
    1.8807    0.0487    0.0000 N   0  0  0  0  0  0  0  0  0  0  0  0
    1.0961   -0.2062    0.0000 C   0  0  0  0  0  0  0  0  0  0  0  0
    1.0961   -1.0313    0.0000 C   0  0  0  0  0  0  0  0  0  0  0  0
    1.8807   -1.2862    0.0000 N   0  0  0  0  0  0  0  0  0  0  0  0
    0.3816   -1.4438    0.0000 C   0  0  0  0  0  0  0  0  0  0  0  0
   -0.3328   -1.0313    0.0000 C   0  0  0  0  0  0  0  0  0  0  0  0
   -0.3328   -0.2062    0.0000 C   0  0  0  0  0  0  0  0  0  0  0  0
    0.3816    0.2062    0.0000 C   0  0  0  0  0  0  0  0  0  0  0  0
    3.1907   -0.6188    0.0000 O   0  0  0  0  0  0  0  0  0  0  0  0
   -1.0473    0.2062    0.0000 N   0  0  0  0  0  0  0  0  0  0  0  0
    2.1357   -2.0708    0.0000 C   0  0  0  0  0  0  0  0  0  0  0  0
    2.1357    0.8333    0.0000 C   0  0  0  0  0  0  0  0  0  0  0  0
   -1.0473    1.0313    0.0000 C   0  0  0  0  0  0  0  0  0  0  0  0
   -1.7617    1.4438    0.0000 C   0  0  0  0  0  0  0  0  0  0  0  0
   -2.4762    1.0313    0.0000 C   0  0  0  0  0  0  0  0  0  0  0  0
   -3.1907    1.4438    0.0000 C   0  0  0  0  0  0  0  0  0  0  0  0
   -3.1907    2.2687    0.0000 C   0  0  0  0  0  0  0  0  0  0  0  0
   -2.4762    2.6812    0.0000 C   0  0  0  0  0  0  0  0  0  0  0  0
   -1.7617    2.2687    0.0000 C   0  0  0  0  0  0  0  0  0  0  0  0
   -0.3328    1.4438    0.0000 O   0  0  0  0  0  0  0  0  0  0  0  0
   -2.4762    0.2062    0.0000 O   0  0  0  0  0  0  0  0  0  0  0  0
   -1.7617   -0.2062    0.0000 C   0  0  0  0  0  0  0  0  0  0  0  0
  1  2  1  0      
  2  3  1  0      
  3  4  1  0      
  4  5  1  0      
  5  6  1  0      
  1  6  1  0      
  3  7  1  6      
  8  9  1  0      
  9 10  1  0      
 10 11  1  0      
 11 12  1  0      
  8 12  1  0      
 13 14  1  0      
 14 15  2  0      
 15 16  1  0      
 16 10  2  0      
 13 11  2  0      
  8 17  2  0      
 15 18  1  0      
 12 19  1  0      
  9 20  1  0      
  4 14  1  0      
 21 22  1  0      
 22 23  1  0      
 23 24  2  0      
 24 25  1  0      
 25 26  2  0      
 26 27  1  0      
 22 27  2  0      
 21 28  2  0      
 29 30  1  0      
 23 29  1  0      
 21 18  1  0      
M  END

>  <RackCode>
HYCPK72335

>  <Cat. No.>
HY-100220

>  <Product Name>
GSK6853

>  <ROW>
F

>  <COLUMN>
19

>  <CAS No.>
1910124-24-1

>  <MWt>
409.48

>  <Target>
Epigenetic Reader Domain

>  <Saltdate>
Free Base

>  <Smiles>
C[C@@H]1CNCCN1C2=C(NC(C3=CC=CC=C3OC)=O)C=C(C(N4C)=C2)N(C)C4=O

>  <Solvent>
DMSO Solution

>  <Batch No.>
21776

>  <Quantity>
10mM  * 50uL

>  <Pathway>
Epigenetics

>  <Synonyms>


>  <Formula>
C22H27N5O3

>  <Research_Area>
Cancer

>  <Clinical_Information>
No Development Reported

>  <SUPPLIER>
MedChemExpress

$$$$
Untitled Document
  ChemDraw10262013182D

 30 32  0  0  0  0  0  0  0  0999 V2000
    3.5951   -1.4877    0.0000 C   0  0  0  0  0  0  0  0  0  0  0  0
    3.2596   -0.7341    0.0000 C   0  0  0  0  0  0  0  0  0  0  0  0
    2.4391   -0.6478    0.0000 C   0  0  0  0  0  0  0  0  0  0  0  0
    2.1035    0.1058    0.0000 C   0  0  0  0  0  0  0  0  0  0  0  0
    2.5884    0.7733    0.0000 C   0  0  0  0  0  0  0  0  0  0  0  0
    3.4089    0.6870    0.0000 C   0  0  0  0  0  0  0  0  0  0  0  0
    3.7445   -0.0666    0.0000 C   0  0  0  0  0  0  0  0  0  0  0  0
    3.1102   -2.1551    0.0000 O   0  0  0  0  0  0  0  0  0  0  0  0
    4.4156   -1.5740    0.0000 N   0  0  0  0  0  0  0  0  0  0  0  0
    2.2529    1.5270    0.0000 C   0  0  0  0  0  0  0  0  0  0  0  0
    1.4325    1.6132    0.0000 N   0  0  0  0  0  0  0  0  0  0  0  0
    1.0200    2.3276    0.0000 N   0  0  0  0  0  0  0  0  0  0  0  0
    0.2130    2.1560    0.0000 N   0  0  0  0  0  0  0  0  0  0  0  0
    0.1268    1.3357    0.0000 C   0  0  0  0  0  0  0  0  0  0  0  0
    0.8805    1.0001    0.0000 C   0  0  0  0  0  0  0  0  0  0  0  0
   -0.5877    0.9232    0.0000 C   0  0  0  0  0  0  0  0  0  0  0  0
   -0.5877    0.0982    0.0000 C   0  0  0  0  0  0  0  0  0  0  0  0
   -1.3021   -0.3143    0.0000 C   0  0  0  0  0  0  0  0  0  0  0  0
   -2.0165    0.0982    0.0000 C   0  0  0  0  0  0  0  0  0  0  0  0
   -2.0165    0.9232    0.0000 C   0  0  0  0  0  0  0  0  0  0  0  0
   -1.3021    1.3357    0.0000 C   0  0  0  0  0  0  0  0  0  0  0  0
   -2.7310   -0.3143    0.0000 C   0  0  0  0  0  0  0  0  0  0  0  0
   -3.4455    0.0982    0.0000 N   0  0  0  0  0  0  0  0  0  0  0  0
   -4.1991   -0.2374    0.0000 C   0  0  0  0  0  0  0  0  0  0  0  0
   -4.7512    0.3757    0.0000 C   0  0  0  0  0  0  0  0  0  0  0  0
   -4.3387    1.0902    0.0000 C   0  0  0  0  0  0  0  0  0  0  0  0
   -3.5317    0.9186    0.0000 C   0  0  0  0  0  0  0  0  0  0  0  0
    4.7512   -2.3276    0.0000 O   0  0  0  0  0  0  0  0  0  0  0  0
   -0.6479   -1.9914    0.0000 H   0  0  0  0  0  0  0  0  0  0  0  0
    0.1771   -1.9914    0.0000 Cl  0  0  0  0  0  0  0  0  0  0  0  0
  1  2  1  0      
  2  3  1  0      
  3  4  2  0      
  4  5  1  0      
  5  6  2  0      
  6  7  1  0      
  2  7  2  0      
  1  8  2  0      
  1  9  1  0      
 11 12  1  0      
 12 13  2  0      
 13 14  1  0      
 14 15  2  0      
 11 15  1  0      
 16 17  1  0      
 17 18  2  0      
 18 19  1  0      
 19 20  2  0      
 20 21  1  0      
 16 21  2  0      
 23 24  1  0      
 24 25  1  0      
 25 26  1  0      
 26 27  1  0      
 23 27  1  0      
 22 23  1  0      
 19 22  1  0      
 14 16  1  0      
 10 11  1  0      
  5 10  1  0      
  9 28  1  0      
 29 30  1  0      
M  END

>  <RackCode>
HYCPK72335

>  <Cat. No.>
HY-131708A

>  <Product Name>
FNDR-20123

>  <ROW>
G

>  <COLUMN>
19

>  <CAS No.>
2641930-61-0

>  <MWt>
413.90

>  <Target>
HDAC; Parasite

>  <Saltdate>
Hydrochloride

>  <Smiles>
O=C(NO)C1=CC=C(CN2N=NC(C3=CC=C(CN4CCCC4)C=C3)=C2)C=C1.[H]Cl

>  <Solvent>
DMSO Solution

>  <Batch No.>
98039

>  <Quantity>
10mM  * 50uL

>  <Pathway>
Anti-infection; Cell Cycle/DNA Damage; Epigenetics

>  <Synonyms>


>  <Formula>
C21H24ClN5O2

>  <Research_Area>
Infection

>  <Clinical_Information>
No Development Reported

>  <SUPPLIER>
MedChemExpress

$$$$
Untitled Document
  ChemDraw09152211082D

 33 35  0  0  0  0  0  0  0  0999 V2000
    0.8703    0.0478    0.0000 C   0  0  0  0  0  0  0  0  0  0  0  0
    1.3552   -0.6196    0.0000 C   0  0  0  0  0  0  0  0  0  0  0  0
    2.1802   -0.6196    0.0000 C   0  0  0  0  0  0  0  0  0  0  0  0
    2.4351   -1.4042    0.0000 C   0  0  0  0  0  0  0  0  0  0  0  0
    1.7677   -1.8891    0.0000 N   0  0  0  0  0  0  0  0  0  0  0  0
    1.1003   -1.4042    0.0000 C   0  0  0  0  0  0  0  0  0  0  0  0
    0.3156   -1.6592    0.0000 O   0  0  0  0  0  0  0  0  0  0  0  0
    3.2420   -1.5757    0.0000 C   0  0  0  0  0  0  0  0  0  0  0  0
    3.7940   -0.9627    0.0000 C   0  0  0  0  0  0  0  0  0  0  0  0
    3.5391   -0.1780    0.0000 C   0  0  0  0  0  0  0  0  0  0  0  0
    4.0911    0.4351    0.0000 C   0  0  0  0  0  0  0  0  0  0  0  0
    4.8981    0.2635    0.0000 C   0  0  0  0  0  0  0  0  0  0  0  0
    5.4501    0.8766    0.0000 C   0  0  0  0  0  0  0  0  0  0  0  0
    6.2571    0.7051    0.0000 N   0  0  0  0  0  0  0  0  0  0  0  0
    5.1952    1.6613    0.0000 O   0  0  0  0  0  0  0  0  0  0  0  0
    2.7321   -0.0065    0.0000 C   0  0  0  0  0  0  0  0  0  0  0  0
    0.0498   -0.0384    0.0000 C   0  0  0  0  0  0  0  0  0  0  0  0
   -0.5022    0.5747    0.0000 C   0  0  0  0  0  0  0  0  0  0  0  0
   -0.3307    1.3817    0.0000 C   0  0  0  0  0  0  0  0  0  0  0  0
   -1.2559    0.2391    0.0000 C   0  0  0  0  0  0  0  0  0  0  0  0
   -1.9704    0.6516    0.0000 C   0  0  0  0  0  0  0  0  0  0  0  0
   -2.6849    0.2391    0.0000 N   0  0  0  0  0  0  0  0  0  0  0  0
   -3.3992    0.6516    0.0000 C   0  0  0  0  0  0  0  0  0  0  0  0
   -4.1137    0.2391    0.0000 C   0  0  0  0  0  0  0  0  0  0  0  0
   -4.8282    0.6516    0.0000 N   0  0  0  0  0  0  0  0  0  0  0  0
   -5.5426    0.2391    0.0000 C   0  0  0  0  0  0  0  0  0  0  0  0
   -6.2571    0.6516    0.0000 C   0  0  0  0  0  0  0  0  0  0  0  0
   -4.8282    1.4766    0.0000 C   0  0  0  0  0  0  0  0  0  0  0  0
   -5.5426    1.8891    0.0000 C   0  0  0  0  0  0  0  0  0  0  0  0
   -1.9704    1.4766    0.0000 O   0  0  0  0  0  0  0  0  0  0  0  0
   -1.1697   -0.5813    0.0000 C   0  0  0  0  0  0  0  0  0  0  0  0
   -1.7828   -1.1334    0.0000 C   0  0  0  0  0  0  0  0  0  0  0  0
   -0.3627   -0.7529    0.0000 N   0  0  0  0  0  0  0  0  0  0  0  0
  1  2  2  0      
  2  3  1  0      
  3  4  1  0      
  4  5  1  0      
  5  6  1  0      
  2  6  1  0      
  6  7  2  0      
  4  8  2  0      
  8  9  1  0      
  9 10  2  0      
 10 11  1  0      
 11 12  1  0      
 12 13  1  0      
 13 14  1  0      
 13 15  2  0      
 10 16  1  0      
  3 16  2  0      
  1 17  1  0      
 17 18  2  0      
 18 19  1  0      
 18 20  1  0      
 20 21  1  0      
 21 22  1  0      
 22 23  1  0      
 23 24  1  0      
 24 25  1  0      
 25 26  1  0      
 26 27  1  0      
 25 28  1  0      
 28 29  1  0      
 21 30  2  0      
 20 31  2  0      
 31 32  1  0      
 31 33  1  0      
 17 33  1  0      
M  END

>  <RackCode>
HYCPK72335

>  <Cat. No.>
HY-151361

>  <Product Name>
AMPK-IN-3

>  <ROW>
H

>  <COLUMN>
19

>  <CAS No.>
2417674-27-0

>  <MWt>
451.56

>  <Target>
AMPK

>  <Saltdate>


>  <Smiles>
O=C(/C(C1=C2)=C\C3=C(C(C(NCCN(CC)CC)=O)=C(N3)C)C)NC1=CC=C2CCC(N)=O

>  <Solvent>
DMSO Solution

>  <Batch No.>
247211

>  <Quantity>
10mM  * 50uL

>  <Pathway>
Epigenetics; PI3K/Akt/mTOR

>  <Synonyms>


>  <Formula>
C25H33N5O3

>  <Research_Area>
Cancer

>  <Clinical_Information>
No Development Reported

>  <SUPPLIER>
MedChemExpress

$$$$
Untitled Document
  ChemDraw03221710332D

 17 19  0  0  0  0  0  0  0  0999 V2000
   -0.7857    0.9810    0.0000 S   0  0  0  0  0  0  0  0  0  0  0  0
   -0.3008    0.3135    0.0000 N   0  0  0  0  0  0  0  0  0  0  0  0
   -0.7857   -0.3539    0.0000 C   0  0  0  0  0  0  0  0  0  0  0  0
   -1.5703   -0.0990    0.0000 C   0  0  0  0  0  0  0  0  0  0  0  0
   -2.2848   -0.5115    0.0000 C   0  0  0  0  0  0  0  0  0  0  0  0
   -2.9992   -0.0990    0.0000 C   0  0  0  0  0  0  0  0  0  0  0  0
   -2.9992    0.7260    0.0000 C   0  0  0  0  0  0  0  0  0  0  0  0
   -2.2848    1.1385    0.0000 C   0  0  0  0  0  0  0  0  0  0  0  0
   -1.5703    0.7260    0.0000 C   0  0  0  0  0  0  0  0  0  0  0  0
   -0.5307   -1.1385    0.0000 O   0  0  0  0  0  0  0  0  0  0  0  0
    0.5242    0.3135    0.0000 C   0  0  0  0  0  0  0  0  0  0  0  0
    0.9367    1.0280    0.0000 C   0  0  0  0  0  0  0  0  0  0  0  0
    1.7617    1.0280    0.0000 C   0  0  0  0  0  0  0  0  0  0  0  0
    2.1742    0.3135    0.0000 C   0  0  0  0  0  0  0  0  0  0  0  0
    1.7617   -0.4009    0.0000 C   0  0  0  0  0  0  0  0  0  0  0  0
    0.9367   -0.4009    0.0000 C   0  0  0  0  0  0  0  0  0  0  0  0
    2.9992    0.3135    0.0000 C   0  0  0  0  0  0  0  0  0  0  0  0
  1  2  1  0      
  2  3  1  0      
  3  4  1  0      
  4  5  1  0      
  5  6  2  0      
  6  7  1  0      
  7  8  2  0      
  8  9  1  0      
  1  9  1  0      
  4  9  2  0      
  3 10  2  0      
 11 12  1  0      
 12 13  2  0      
 13 14  1  0      
 14 15  2  0      
 15 16  1  0      
 11 16  2  0      
 14 17  1  0      
  2 11  1  0      
M  END

>  <RackCode>
HYCPK72335

>  <Cat. No.>
HY-101451

>  <Product Name>
PBIT

>  <ROW>
I

>  <COLUMN>
19

>  <CAS No.>
2514-30-9

>  <MWt>
241.31

>  <Target>
Histone Demethylase

>  <Saltdate>
Free Base

>  <Smiles>
O=C1N(C2=CC=C(C)C=C2)SC3=C1C=CC=C3

>  <Solvent>
DMSO Solution

>  <Batch No.>
124575

>  <Quantity>
10mM  * 50uL

>  <Pathway>
Epigenetics

>  <Synonyms>


>  <Formula>
C14H11NOS

>  <Research_Area>
Cancer

>  <Clinical_Information>
No Development Reported

>  <SUPPLIER>
MedChemExpress

$$$$
Untitled Document
  ChemDraw05302209232D

 31 34  0  0  0  0  0  0  0  0999 V2000
   -0.7145   -0.2062    0.0000 O   0  0  0  0  0  0  0  0  0  0  0  0
   -0.7145   -1.0313    0.0000 C   0  0  0  0  0  0  0  0  0  0  0  0
   -0.0000   -1.4437    0.0000 N   0  0  0  0  0  0  0  0  0  0  0  0
    0.7145   -1.0313    0.0000 C   0  0  0  0  0  0  0  0  0  0  0  0
    0.7145   -0.2062    0.0000 C   0  0  0  0  0  0  0  0  0  0  0  0
   -0.0000    0.2062    0.0000 C   0  0  0  0  0  0  0  0  0  0  0  0
   -0.0000    1.0313    0.0000 C   0  0  0  0  0  0  0  0  0  0  0  0
    0.7145    1.4437    0.0000 C   0  0  0  0  0  0  0  0  0  0  0  0
    0.7145    2.2688    0.0000 O   0  0  0  0  0  0  0  0  0  0  0  0
    1.4289    2.6813    0.0000 C   0  0  0  0  0  0  0  0  0  0  0  0
    1.4289    1.0313    0.0000 C   0  0  0  0  0  0  0  0  0  0  0  0
    1.4289    0.2062    0.0000 C   0  0  0  0  0  0  0  0  0  0  0  0
    1.4289   -1.4437    0.0000 C   0  0  0  0  0  0  0  0  0  0  0  0
    1.4289   -2.2688    0.0000 C   0  0  0  0  0  0  0  0  0  0  0  0
    2.1435   -2.6813    0.0000 C   0  0  0  0  0  0  0  0  0  0  0  0
    2.8580   -2.2688    0.0000 C   0  0  0  0  0  0  0  0  0  0  0  0
    3.5725   -2.6813    0.0000 C   0  0  0  0  0  0  0  0  0  0  0  0
    4.2869   -2.2688    0.0000 C   0  0  0  0  0  0  0  0  0  0  0  0
    4.2869   -1.4437    0.0000 C   0  0  0  0  0  0  0  0  0  0  0  0
    3.5725   -1.0313    0.0000 N   0  0  0  0  0  0  0  0  0  0  0  0
    2.8580   -1.4437    0.0000 C   0  0  0  0  0  0  0  0  0  0  0  0
    2.1435   -1.0313    0.0000 C   0  0  0  0  0  0  0  0  0  0  0  0
    2.1435   -0.2062    0.0000 O   0  0  0  0  0  0  0  0  0  0  0  0
   -1.4289   -1.4437    0.0000 C   0  0  0  0  0  0  0  0  0  0  0  0
   -2.1435   -1.0313    0.0000 C   0  0  0  0  0  0  0  0  0  0  0  0
   -2.8580   -1.4437    0.0000 C   0  0  0  0  0  0  0  0  0  0  0  0
   -2.8580   -2.2688    0.0000 C   0  0  0  0  0  0  0  0  0  0  0  0
   -3.5725   -2.6813    0.0000 C   0  0  0  0  0  0  0  0  0  0  0  0
   -4.2869   -2.2688    0.0000 C   0  0  0  0  0  0  0  0  0  0  0  0
   -4.2869   -1.4437    0.0000 C   0  0  0  0  0  0  0  0  0  0  0  0
   -3.5725   -1.0313    0.0000 C   0  0  0  0  0  0  0  0  0  0  0  0
  1  2  2  0      
  2  3  1  0      
  3  4  1  0      
  4  5  1  0      
  5  6  2  0      
  6  7  1  0      
  7  8  2  0      
  8  9  1  0      
  9 10  1  0      
  8 11  1  0      
 11 12  2  0      
  5 12  1  0      
  4 13  1  0      
 13 14  1  0      
 14 15  2  0      
 15 16  1  0      
 16 17  2  0      
 17 18  1  0      
 18 19  2  0      
 19 20  1  0      
 20 21  2  0      
 16 21  1  0      
 21 22  1  0      
 13 22  2  0      
 22 23  1  0      
  2 24  1  0      
 24 25  1  0      
 25 26  1  0      
 26 27  1  0      
 27 28  2  0      
 28 29  1  0      
 29 30  2  0      
 30 31  1  0      
 26 31  2  0      
M  END

>  <RackCode>
HYCPK72335

>  <Cat. No.>
HY-147029

>  <Product Name>
HIF1-IN-3

>  <ROW>
J

>  <COLUMN>
19

>  <CAS No.>
333314-79-7

>  <MWt>
412.48

>  <Target>
HIF/HIF Prolyl-Hydroxylase

>  <Saltdate>


>  <Smiles>
O=C(CCC1=CC=CC=C1)NC(C2=C(O)C3=NC=CC=C3C=C2)C4=CC=C(C=C4)OC

>  <Solvent>
DMSO Solution

>  <Batch No.>
178404

>  <Quantity>
10mM  * 50uL

>  <Pathway>
Metabolic Enzyme/Protease

>  <Synonyms>


>  <Formula>
C26H24N2O3

>  <Research_Area>
Cancer

>  <Clinical_Information>
No Development Reported

>  <SUPPLIER>
MedChemExpress

$$$$
Untitled Document
  ChemDraw07231913012D

 28 30  0  0  0  0  0  0  0  0999 V2000
    2.4209    1.0313    0.0000 C   0  0  0  0  0  0  0  0  0  0  0  0
    1.7065    1.4437    0.0000 C   0  0  0  0  0  0  0  0  0  0  0  0
    0.9920    1.0313    0.0000 C   0  0  0  0  0  0  0  0  0  0  0  0
    0.2775    1.4437    0.0000 C   0  0  0  0  0  0  0  0  0  0  0  0
    0.2775    2.2687    0.0000 C   0  0  0  0  0  0  0  0  0  0  0  0
    0.9920    2.6812    0.0000 C   0  0  0  0  0  0  0  0  0  0  0  0
    1.7065    2.2687    0.0000 C   0  0  0  0  0  0  0  0  0  0  0  0
    3.1354    0.6187    0.0000 N   0  0  0  0  0  0  0  0  0  0  0  0
    0.9920    3.5062    0.0000 F   0  0  0  0  0  0  0  0  0  0  0  0
   -0.4369    1.0313    0.0000 O   0  0  0  0  0  0  0  0  0  0  0  0
   -1.9360   -1.2862    0.0000 C   0  0  0  0  0  0  0  0  0  0  0  0
   -2.4209   -0.6187    0.0000 C   0  0  0  0  0  0  0  0  0  0  0  0
   -1.9360    0.0487    0.0000 C   0  0  0  0  0  0  0  0  0  0  0  0
   -1.1514   -0.2062    0.0000 C   0  0  0  0  0  0  0  0  0  0  0  0
   -0.4369    0.2062    0.0000 C   0  0  0  0  0  0  0  0  0  0  0  0
    0.2775   -0.2062    0.0000 C   0  0  0  0  0  0  0  0  0  0  0  0
    0.2775   -1.0313    0.0000 C   0  0  0  0  0  0  0  0  0  0  0  0
   -0.4369   -1.4437    0.0000 C   0  0  0  0  0  0  0  0  0  0  0  0
   -1.1514   -1.0313    0.0000 C   0  0  0  0  0  0  0  0  0  0  0  0
   -2.1910   -2.0708    0.0000 O   0  0  0  0  0  0  0  0  0  0  0  0
   -3.1354   -0.2062    0.0000 F   0  0  0  0  0  0  0  0  0  0  0  0
   -3.1354   -1.0313    0.0000 F   0  0  0  0  0  0  0  0  0  0  0  0
   -0.4369   -2.2687    0.0000 S   0  0  0  0  0  0  0  0  0  0  0  0
   -1.2619   -2.2687    0.0000 O   0  0  0  0  0  0  0  0  0  0  0  0
    0.3881   -2.2687    0.0000 O   0  0  0  0  0  0  0  0  0  0  0  0
   -0.4369   -3.0938    0.0000 C   0  0  0  0  0  0  0  0  0  0  0  0
    0.2775   -3.5062    0.0000 F   0  0  0  0  0  0  0  0  0  0  0  0
   -1.1514   -3.5062    0.0000 F   0  0  0  0  0  0  0  0  0  0  0  0
  1  2  1  0      
  2  3  1  0      
  3  4  2  0      
  4  5  1  0      
  5  6  2  0      
  6  7  1  0      
  2  7  2  0      
  1  8  3  0      
  6  9  1  0      
 11 12  1  0      
 12 13  1  0      
 13 14  1  0      
 14 15  1  0      
 15 16  2  0      
 16 17  1  0      
 17 18  2  0      
 18 19  1  0      
 11 19  1  0      
 14 19  2  0      
 11 20  1  0      
 12 21  1  0      
 12 22  1  0      
 23 24  2  0      
 23 25  2  0      
 26 27  1  0      
 26 28  1  0      
 23 26  1  0      
 18 23  1  0      
 10 15  1  0      
  4 10  1  0      
M  END

>  <RackCode>
HYCPK72335

>  <Cat. No.>
HY-108697A

>  <Product Name>
(Rac)-PT2399

>  <ROW>
K

>  <COLUMN>
19

>  <CAS No.>
1672662-07-5

>  <MWt>
419.32

>  <Target>
HIF/HIF Prolyl-Hydroxylase

>  <Saltdate>
Free Base

>  <Smiles>
N#CC1=CC(F)=CC(OC2=CC=C(S(=O)(C(F)F)=O)C3=C2CC(F)(F)C3O)=C1

>  <Solvent>
DMSO Solution

>  <Batch No.>
43863

>  <Quantity>
10mM  * 50uL

>  <Pathway>
Metabolic Enzyme/Protease

>  <Synonyms>


>  <Formula>
C17H10F5NO4S

>  <Research_Area>
Cancer

>  <Clinical_Information>
No Development Reported

>  <SUPPLIER>
MedChemExpress

$$$$
Untitled Document
  ChemDraw11042117242D

 22 25  0  0  0  0  0  0  0  0999 V2000
    0.0827    0.6527    0.0000 N   0  0  0  0  0  0  0  0  0  0  0  0
    0.5676    1.3201    0.0000 N   0  0  0  0  0  0  0  0  0  0  0  0
    1.3522    1.0652    0.0000 C   0  0  0  0  0  0  0  0  0  0  0  0
    1.3522    0.2402    0.0000 C   0  0  0  0  0  0  0  0  0  0  0  0
    0.5676   -0.0147    0.0000 C   0  0  0  0  0  0  0  0  0  0  0  0
    0.3127   -0.7994    0.0000 O   0  0  0  0  0  0  0  0  0  0  0  0
    2.0197   -0.2447    0.0000 C   0  0  0  0  0  0  0  0  0  0  0  0
    2.7734    0.0908    0.0000 C   0  0  0  0  0  0  0  0  0  0  0  0
    3.4408   -0.3941    0.0000 C   0  0  0  0  0  0  0  0  0  0  0  0
    3.3546   -1.2146    0.0000 C   0  0  0  0  0  0  0  0  0  0  0  0
    2.6009   -1.5501    0.0000 C   0  0  0  0  0  0  0  0  0  0  0  0
    1.9334   -1.0652    0.0000 C   0  0  0  0  0  0  0  0  0  0  0  0
    2.0197    1.5501    0.0000 C   0  0  0  0  0  0  0  0  0  0  0  0
   -0.7423    0.6527    0.0000 C   0  0  0  0  0  0  0  0  0  0  0  0
   -1.2272   -0.0147    0.0000 N   0  0  0  0  0  0  0  0  0  0  0  0
   -2.0118    0.2402    0.0000 C   0  0  0  0  0  0  0  0  0  0  0  0
   -2.0118    1.0652    0.0000 C   0  0  0  0  0  0  0  0  0  0  0  0
   -1.2272    1.3201    0.0000 N   0  0  0  0  0  0  0  0  0  0  0  0
   -2.7263   -0.1723    0.0000 C   0  0  0  0  0  0  0  0  0  0  0  0
   -3.4408    0.2402    0.0000 C   0  0  0  0  0  0  0  0  0  0  0  0
   -3.4408    1.0652    0.0000 C   0  0  0  0  0  0  0  0  0  0  0  0
   -2.7263    1.4777    0.0000 C   0  0  0  0  0  0  0  0  0  0  0  0
  1  2  1  0      
  2  3  2  0      
  3  4  1  0      
  4  5  2  0      
  1  5  1  0      
  5  6  1  0      
  7  8  1  0      
  8  9  2  0      
  9 10  1  0      
 10 11  2  0      
 11 12  1  0      
  7 12  2  0      
  4  7  1  0      
  3 13  1  0      
 14 15  2  0      
 15 16  1  0      
 16 17  1  0      
 17 18  1  0      
 14 18  1  0      
 19 20  1  0      
 20 21  2  0      
 21 22  1  0      
 22 17  2  0      
 19 16  2  0      
  1 14  1  0      
M  END

>  <RackCode>
HYCPK72335

>  <Cat. No.>
HY-132896

>  <Product Name>
KDM4-IN-3

>  <ROW>
L

>  <COLUMN>
19

>  <CAS No.>
1068515-53-6

>  <MWt>
290.32

>  <Target>
Histone Demethylase

>  <Saltdate>


>  <Smiles>
OC1=C(C2=CC=CC=C2)C(C)=NN1C3=NC4=CC=CC=C4N3

>  <Solvent>
DMSO Solution

>  <Batch No.>
277810

>  <Quantity>
10mM  * 50uL

>  <Pathway>
Epigenetics

>  <Synonyms>


>  <Formula>
C17H14N4O

>  <Research_Area>
Cancer

>  <Clinical_Information>
No Development Reported

>  <SUPPLIER>
MedChemExpress

$$$$
Untitled Document
  ChemDraw10171716592D

 27 30  0  0  0  0  0  0  0  0999 V2000
    2.6505   -0.6690    0.0000 C   0  0  0  0  0  0  0  0  0  0  0  0
    3.1354   -1.3365    0.0000 N   0  0  0  0  0  0  0  0  0  0  0  0
    2.6505   -2.0039    0.0000 C   0  0  0  0  0  0  0  0  0  0  0  0
    1.8659   -1.7490    0.0000 C   0  0  0  0  0  0  0  0  0  0  0  0
    1.1514   -2.1615    0.0000 C   0  0  0  0  0  0  0  0  0  0  0  0
    0.4369   -1.7490    0.0000 C   0  0  0  0  0  0  0  0  0  0  0  0
    0.4369   -0.9240    0.0000 C   0  0  0  0  0  0  0  0  0  0  0  0
    1.1514   -0.5115    0.0000 C   0  0  0  0  0  0  0  0  0  0  0  0
    1.8659   -0.9240    0.0000 C   0  0  0  0  0  0  0  0  0  0  0  0
    2.9054    0.1156    0.0000 O   0  0  0  0  0  0  0  0  0  0  0  0
    2.9054   -2.7885    0.0000 O   0  0  0  0  0  0  0  0  0  0  0  0
   -0.2775   -0.5115    0.0000 N   0  0  0  0  0  0  0  0  0  0  0  0
   -0.2775    0.3135    0.0000 C   0  0  0  0  0  0  0  0  0  0  0  0
    0.4369    0.7260    0.0000 C   0  0  0  0  0  0  0  0  0  0  0  0
    0.4369    1.5510    0.0000 C   0  0  0  0  0  0  0  0  0  0  0  0
   -0.2775    1.9635    0.0000 C   0  0  0  0  0  0  0  0  0  0  0  0
   -0.9920    1.5510    0.0000 C   0  0  0  0  0  0  0  0  0  0  0  0
   -0.9920    0.7260    0.0000 C   0  0  0  0  0  0  0  0  0  0  0  0
   -0.2775    2.7885    0.0000 F   0  0  0  0  0  0  0  0  0  0  0  0
   -0.2775   -2.1615    0.0000 N   0  0  0  0  0  0  0  0  0  0  0  0
   -0.9920   -1.7490    0.0000 C   0  0  0  0  0  0  0  0  0  0  0  0
   -1.7065   -2.1615    0.0000 C   0  0  0  0  0  0  0  0  0  0  0  0
   -2.4210   -1.7490    0.0000 C   0  0  0  0  0  0  0  0  0  0  0  0
   -2.4210   -0.9240    0.0000 C   0  0  0  0  0  0  0  0  0  0  0  0
   -1.7065   -0.5115    0.0000 C   0  0  0  0  0  0  0  0  0  0  0  0
   -0.9920   -0.9240    0.0000 C   0  0  0  0  0  0  0  0  0  0  0  0
   -3.1354   -0.5115    0.0000 F   0  0  0  0  0  0  0  0  0  0  0  0
  1  2  1  0      
  2  3  1  0      
  3  4  1  0      
  4  5  1  0      
  5  6  2  0      
  6  7  1  0      
  7  8  2  0      
  8  9  1  0      
  1  9  1  0      
  4  9  2  0      
  1 10  2  0      
  3 11  2  0      
 13 14  1  0      
 14 15  2  0      
 15 16  1  0      
 16 17  2  0      
 17 18  1  0      
 13 18  2  0      
 16 19  1  0      
 12 13  1  0      
  7 12  1  0      
 21 22  1  0      
 22 23  2  0      
 23 24  1  0      
 24 25  2  0      
 25 26  1  0      
 21 26  2  0      
 24 27  1  0      
 20 21  1  0      
  6 20  1  0      
M  END

>  <RackCode>
HYCPK72335

>  <Cat. No.>
HY-108600

>  <Product Name>
CGP-53353

>  <ROW>
M

>  <COLUMN>
19

>  <CAS No.>
145915-60-2

>  <MWt>
365.33

>  <Target>
DNA/RNA Synthesis; PKC

>  <Saltdate>


>  <Smiles>
O=C1NC(C2=C1C=C(NC3=CC=C(F)C=C3)C(NC4=CC=C(F)C=C4)=C2)=O

>  <Solvent>
DMSO Solution

>  <Batch No.>
232571

>  <Quantity>
10mM  * 50uL

>  <Pathway>
Cell Cycle/DNA Damage; Epigenetics; TGF-beta/Smad

>  <Synonyms>
DAPH-7

>  <Formula>
C20H13F2N3O2

>  <Research_Area>
Metabolic Disease; Cardiovascular Disease

>  <Clinical_Information>
No Development Reported

>  <SUPPLIER>
MedChemExpress

$$$$
Untitled Document
  ChemDraw10091713392D

 37 42  0  0  0  0  0  0  0  0999 V2000
    3.6171    0.8094    0.0000 C   0  0  0  0  0  0  0  0  0  0  0  0
    4.2004    1.3928    0.0000 C   0  0  0  0  0  0  0  0  0  0  0  0
    2.2581    0.3679    0.0000 C   0  0  0  0  0  0  0  0  0  0  0  0
    1.4511    0.5394    0.0000 C   0  0  0  0  0  0  0  0  0  0  0  0
    1.1961    1.3240    0.0000 C   0  0  0  0  0  0  0  0  0  0  0  0
    1.7482    1.9371    0.0000 C   0  0  0  0  0  0  0  0  0  0  0  0
    2.5552    1.7656    0.0000 C   0  0  0  0  0  0  0  0  0  0  0  0
    2.8101    0.9809    0.0000 N   0  0  0  0  0  0  0  0  0  0  0  0
    0.1162    0.5394    0.0000 N   0  0  0  0  0  0  0  0  0  0  0  0
    0.3711    1.3240    0.0000 N   0  0  0  0  0  0  0  0  0  0  0  0
    0.7836    0.0545    0.0000 C   0  0  0  0  0  0  0  0  0  0  0  0
   -0.2631    3.4126    0.0000 C   0  0  0  0  0  0  0  0  0  0  0  0
    0.2218    2.7451    0.0000 C   0  0  0  0  0  0  0  0  0  0  0  0
   -0.1138    1.9914    0.0000 C   0  0  0  0  0  0  0  0  0  0  0  0
   -0.9343    1.9052    0.0000 C   0  0  0  0  0  0  0  0  0  0  0  0
   -1.4192    2.5726    0.0000 C   0  0  0  0  0  0  0  0  0  0  0  0
   -1.0836    3.3263    0.0000 O   0  0  0  0  0  0  0  0  0  0  0  0
    0.7836   -0.7705    0.0000 N   0  0  0  0  0  0  0  0  0  0  0  0
    1.4981   -1.1830    0.0000 C   0  0  0  0  0  0  0  0  0  0  0  0
    1.4981   -2.0080    0.0000 C   0  0  0  0  0  0  0  0  0  0  0  0
    0.7836   -2.4205    0.0000 C   0  0  0  0  0  0  0  0  0  0  0  0
    0.0692   -2.0080    0.0000 C   0  0  0  0  0  0  0  0  0  0  0  0
   -0.6453   -2.4205    0.0000 C   0  0  0  0  0  0  0  0  0  0  0  0
   -1.3598   -2.0080    0.0000 C   0  0  0  0  0  0  0  0  0  0  0  0
   -1.3598   -1.1830    0.0000 C   0  0  0  0  0  0  0  0  0  0  0  0
   -0.6453   -0.7705    0.0000 C   0  0  0  0  0  0  0  0  0  0  0  0
    0.0692   -1.1830    0.0000 C   0  0  0  0  0  0  0  0  0  0  0  0
   -3.3799   -2.6981    0.0000 N   0  0  0  0  0  0  0  0  0  0  0  0
   -2.9674   -3.4126    0.0000 N   0  0  0  0  0  0  0  0  0  0  0  0
   -2.1605   -3.2410    0.0000 C   0  0  0  0  0  0  0  0  0  0  0  0
   -2.0742   -2.4205    0.0000 C   0  0  0  0  0  0  0  0  0  0  0  0
   -2.8279   -2.0850    0.0000 C   0  0  0  0  0  0  0  0  0  0  0  0
   -4.2004   -2.6118    0.0000 C   0  0  0  0  0  0  0  0  0  0  0  0
   -2.0742   -0.7705    0.0000 C   0  0  0  0  0  0  0  0  0  0  0  0
   -2.0742    0.0545    0.0000 F   0  0  0  0  0  0  0  0  0  0  0  0
   -2.7887   -1.1830    0.0000 F   0  0  0  0  0  0  0  0  0  0  0  0
    3.8306    0.0125    0.0000 O   0  0  0  0  0  0  0  0  0  0  0  0
  1  2  1  0      
  3  4  1  0      
  4  5  2  0      
  5  6  1  0      
  6  7  1  0      
  7  8  1  0      
  3  8  1  0      
  9 10  1  0      
  9 11  2  0      
  4 11  1  0      
  5 10  1  0      
 12 13  1  0      
 13 14  1  0      
 14 15  1  0      
 15 16  1  0      
 16 17  1  0      
 12 17  1  0      
 10 14  1  0      
 18 19  1  0      
 19 20  1  0      
 20 21  1  0      
 21 22  1  0      
 22 23  1  0      
 23 24  2  0      
 24 25  1  0      
 25 26  2  0      
 26 27  1  0      
 18 27  1  0      
 22 27  2  0      
 28 29  1  0      
 29 30  2  0      
 30 31  1  0      
 31 32  2  0      
 28 32  1  0      
 28 33  1  0      
 24 31  1  0      
 34 35  1  0      
 34 36  1  0      
 25 34  1  0      
 11 18  1  0      
  1  8  1  0      
  1 37  2  0      
M  END

>  <RackCode>
HYCPK72335

>  <Cat. No.>
HY-108435

>  <Product Name>
GNE-049

>  <ROW>
N

>  <COLUMN>
19

>  <CAS No.>
1936421-41-8

>  <MWt>
510.58

>  <Target>
Epigenetic Reader Domain; Histone Acetyltransferase

>  <Saltdate>
Free Base

>  <Smiles>
CC(N1CCC(N(C2CCOCC2)N=C3N4CCCC5=C4C=C(C(F)F)C(C6=CN(C)N=C6)=C5)=C3C1)=O

>  <Solvent>
DMSO Solution

>  <Batch No.>
43431

>  <Quantity>
10mM  * 50uL

>  <Pathway>
Epigenetics

>  <Synonyms>


>  <Formula>
C27H32F2N6O2

>  <Research_Area>
Cancer

>  <Clinical_Information>
No Development Reported

>  <SUPPLIER>
MedChemExpress

$$$$
Untitled Document
  ChemDraw10252113312D

 31 34  0  0  0  0  0  0  0  0999 V2000
    1.1333   -1.0313    0.0000 O   0  0  0  0  0  0  0  0  0  0  0  0
    1.1333   -0.2062    0.0000 C   0  0  0  0  0  0  0  0  0  0  0  0
    1.8479    0.2062    0.0000 N   0  0  0  0  0  0  0  0  0  0  0  0
    2.5624   -0.2062    0.0000 C   0  0  0  0  0  0  0  0  0  0  0  0
    3.2768    0.2062    0.0000 C   0  0  0  0  0  0  0  0  0  0  0  0
    3.9913   -0.2062    0.0000 C   0  0  0  0  0  0  0  0  0  0  0  0
    3.9913   -1.0313    0.0000 C   0  0  0  0  0  0  0  0  0  0  0  0
    3.2768   -1.4437    0.0000 C   0  0  0  0  0  0  0  0  0  0  0  0
    2.5624   -1.0313    0.0000 C   0  0  0  0  0  0  0  0  0  0  0  0
    1.8479   -1.4437    0.0000 N   0  0  0  0  0  0  0  0  0  0  0  0
    4.7058    0.2062    0.0000 C   0  0  0  0  0  0  0  0  0  0  0  0
    4.7920    1.0267    0.0000 S   0  0  0  0  0  0  0  0  0  0  0  0
    5.5991    1.1983    0.0000 C   0  0  0  0  0  0  0  0  0  0  0  0
    6.0116    0.4838    0.0000 C   0  0  0  0  0  0  0  0  0  0  0  0
    5.4596   -0.1293    0.0000 C   0  0  0  0  0  0  0  0  0  0  0  0
    0.4189    0.2062    0.0000 C   0  0  0  0  0  0  0  0  0  0  0  0
    0.4189    1.0313    0.0000 N   0  0  0  0  0  0  0  0  0  0  0  0
   -0.2956    1.4437    0.0000 C   0  0  0  0  0  0  0  0  0  0  0  0
   -1.0101    1.0313    0.0000 C   0  0  0  0  0  0  0  0  0  0  0  0
   -1.7247    1.4437    0.0000 C   0  0  0  0  0  0  0  0  0  0  0  0
   -2.4391    1.0313    0.0000 C   0  0  0  0  0  0  0  0  0  0  0  0
   -2.4391    0.2062    0.0000 C   0  0  0  0  0  0  0  0  0  0  0  0
   -1.7247   -0.2062    0.0000 C   0  0  0  0  0  0  0  0  0  0  0  0
   -1.0101    0.2062    0.0000 C   0  0  0  0  0  0  0  0  0  0  0  0
   -0.2956   -0.2062    0.0000 C   0  0  0  0  0  0  0  0  0  0  0  0
   -3.1536    1.4437    0.0000 N   0  0  0  0  0  0  0  0  0  0  0  0
   -3.8681    1.0313    0.0000 C   0  0  0  0  0  0  0  0  0  0  0  0
   -4.5825    1.4437    0.0000 C   0  0  0  0  0  0  0  0  0  0  0  0
   -5.2971    1.0313    0.0000 N   0  0  0  0  0  0  0  0  0  0  0  0
   -6.0116    1.4437    0.0000 C   0  0  0  0  0  0  0  0  0  0  0  0
   -5.2971    0.2062    0.0000 C   0  0  0  0  0  0  0  0  0  0  0  0
  1  2  2  0      
  2  3  1  0      
  3  4  1  0      
  4  5  1  0      
  5  6  2  0      
  6  7  1  0      
  7  8  2  0      
  8  9  1  0      
  4  9  2  0      
  9 10  1  0      
  6 11  1  0      
 11 12  1  0      
 12 13  1  0      
 13 14  2  0      
 14 15  1  0      
 11 15  2  0      
  2 16  1  0      
 16 17  1  0      
 17 18  2  0      
 18 19  1  0      
 19 20  2  0      
 20 21  1  0      
 21 22  2  0      
 22 23  1  0      
 23 24  2  0      
 19 24  1  0      
 24 25  1  0      
 16 25  2  0      
 21 26  1  0      
 26 27  1  0      
 27 28  1  0      
 28 29  1  0      
 29 30  1  0      
 29 31  1  0      
M  END

>  <RackCode>
HYCPK72335

>  <Cat. No.>
HY-139650

>  <Product Name>
HDAC1/2-IN-3

>  <ROW>
O

>  <COLUMN>
19

>  <CAS No.>
2121516-17-2

>  <MWt>
431.55

>  <Target>
HDAC

>  <Saltdate>


>  <Smiles>
O=C(C1=CC2=CC=C(NCCN(C)C)C=C2C=N1)NC3=C(N)C=CC(C4=CC=CS4)=C3

>  <Solvent>
DMSO Solution

>  <Batch No.>
314001

>  <Quantity>
10mM  * 50uL

>  <Pathway>
Cell Cycle/DNA Damage; Epigenetics

>  <Synonyms>


>  <Formula>
C24H25N5OS

>  <Research_Area>
Cancer

>  <Clinical_Information>
No Development Reported

>  <SUPPLIER>
MedChemExpress

$$$$
Untitled Document
  ChemDraw03242115572D

 32 36  0  0  0  0  0  0  0  0999 V2000
    3.0917    0.4749    0.0000 H   0  0  0  0  0  0  0  0  0  0  0  0
    3.0055   -0.3456    0.0000 C   0  0  0  0  0  0  0  0  0  0  0  0
    3.8125   -0.5171    0.0000 C   0  0  0  0  0  0  0  0  0  0  0  0
    3.8987   -1.3376    0.0000 O   0  0  0  0  0  0  0  0  0  0  0  0
    3.1450   -1.6732    0.0000 C   0  0  0  0  0  0  0  0  0  0  0  0
    1.9257   -1.5450    0.0000 H   0  0  0  0  0  0  0  0  0  0  0  0
    2.5931   -1.0601    0.0000 C   0  0  0  0  0  0  0  0  0  0  0  0
    2.1806   -0.3456    0.0000 C   0  0  0  0  0  0  0  0  0  0  0  0
    1.4661    0.0669    0.0000 N   0  0  0  0  0  0  0  0  0  0  0  0
   -0.6773   -0.3456    0.0000 C   0  0  0  0  0  0  0  0  0  0  0  0
   -1.3918    0.0669    0.0000 C   0  0  0  0  0  0  0  0  0  0  0  0
   -1.8793   -1.5858    0.0000 C   0  0  0  0  0  0  0  0  0  0  0  0
   -2.1342   -2.3704    0.0000 C   0  0  0  0  0  0  0  0  0  0  0  0
   -2.9411   -2.5419    0.0000 C   0  0  0  0  0  0  0  0  0  0  0  0
   -3.4931   -1.9288    0.0000 C   0  0  0  0  0  0  0  0  0  0  0  0
   -3.2382   -1.1442    0.0000 C   0  0  0  0  0  0  0  0  0  0  0  0
   -2.4313   -0.9727    0.0000 C   0  0  0  0  0  0  0  0  0  0  0  0
   -2.1764   -0.1880    0.0000 C   0  0  0  0  0  0  0  0  0  0  0  0
   -3.4862    0.4794    0.0000 C   0  0  0  0  0  0  0  0  0  0  0  0
   -2.6612    0.4794    0.0000 C   0  0  0  0  0  0  0  0  0  0  0  0
   -2.1764    1.1468    0.0000 O   0  0  0  0  0  0  0  0  0  0  0  0
   -1.3918    0.8919    0.0000 C   0  0  0  0  0  0  0  0  0  0  0  0
   -1.3918    2.5419    0.0000 O   0  0  0  0  0  0  0  0  0  0  0  0
    0.0372    2.5419    0.0000 N   0  0  0  0  0  0  0  0  0  0  0  0
   -0.6773    2.1294    0.0000 C   0  0  0  0  0  0  0  0  0  0  0  0
   -0.6773    1.3044    0.0000 C   0  0  0  0  0  0  0  0  0  0  0  0
    0.0372    0.8919    0.0000 C   0  0  0  0  0  0  0  0  0  0  0  0
    0.0372    0.0669    0.0000 C   0  0  0  0  0  0  0  0  0  0  0  0
    0.7517   -0.3456    0.0000 C   0  0  0  0  0  0  0  0  0  0  0  0
    0.7517   -1.1706    0.0000 O   0  0  0  0  0  0  0  0  0  0  0  0
   -3.8987   -0.2351    0.0000 F   0  0  0  0  0  0  0  0  0  0  0  0
    0.7517    2.1294    0.0000 C   0  0  0  0  0  0  0  0  0  0  0  0
  2  1  1  1      
  7  2  1  0      
  8  2  1  0      
  3  2  1  0      
  4  3  1  0      
  5  4  1  0      
  7  5  1  0      
  7  6  1  1      
  8  7  1  0      
  8  9  1  1      
 29  9  1  0      
 28 10  1  0      
 11 10  2  0      
 18 11  1  0      
 22 11  1  0      
 17 12  1  0      
 13 12  2  0      
 14 13  1  0      
 15 14  2  0      
 16 15  1  0      
 17 16  2  0      
 18 17  1  6      
 20 18  1  0      
 20 19  1  1      
 21 20  1  0      
 22 21  1  0      
 26 22  2  0      
 25 23  2  0      
 25 24  1  0      
 26 25  1  0      
 27 26  1  0      
 28 27  2  0      
 29 28  1  0      
 30 29  2  0      
 19 31  1  0      
 24 32  1  0      
M  END

>  <RackCode>
HYCPK72335

>  <Cat. No.>
HY-138563

>  <Product Name>
GSK973

>  <ROW>
P

>  <COLUMN>
19

>  <CAS No.>
2138473-38-6

>  <MWt>
410.44

>  <Target>
Epigenetic Reader Domain

>  <Saltdate>


>  <Smiles>
[H][C@]1([C@@H]2NC(C3=CC(C(NC)=O)=C4C([C@@H]([C@H](O4)CF)C5=CC=CC=C5)=C3)=O)[C@]2([H])COC1

>  <Solvent>
DMSO Solution

>  <Batch No.>
343171

>  <Quantity>
10mM  * 50uL

>  <Pathway>
Epigenetics

>  <Synonyms>


>  <Formula>
C23H23FN2O4

>  <Research_Area>
Cancer

>  <Clinical_Information>
No Development Reported

>  <SUPPLIER>
MedChemExpress

$$$$
Untitled Document
  ChemDraw09291615202D

 18 19  0  0  0  0  0  0  0  0999 V2000
   -1.0717   -1.0313    0.0000 N   0  0  0  0  0  0  0  0  0  0  0  0
   -1.0717   -0.2063    0.0000 C   0  0  0  0  0  0  0  0  0  0  0  0
   -0.3572    0.2062    0.0000 C   0  0  0  0  0  0  0  0  0  0  0  0
    0.3572   -0.2063    0.0000 C   0  0  0  0  0  0  0  0  0  0  0  0
    0.3572   -1.0313    0.0000 C   0  0  0  0  0  0  0  0  0  0  0  0
   -0.3572   -1.4438    0.0000 C   0  0  0  0  0  0  0  0  0  0  0  0
   -2.5003   -1.0313    0.0000 C   0  0  0  0  0  0  0  0  0  0  0  0
   -1.7859   -1.4438    0.0000 C   0  0  0  0  0  0  0  0  0  0  0  0
   -3.2148   -1.4438    0.0000 N   0  0  0  0  0  0  0  0  0  0  0  0
    1.0717    0.2062    0.0000 O   0  0  0  0  0  0  0  0  0  0  0  0
    1.7859   -0.2063    0.0000 C   0  0  0  0  0  0  0  0  0  0  0  0
    2.5003    0.2062    0.0000 C   0  0  0  0  0  0  0  0  0  0  0  0
    2.5003    1.0313    0.0000 C   0  0  0  0  0  0  0  0  0  0  0  0
    3.2148    1.4438    0.0000 C   0  0  0  0  0  0  0  0  0  0  0  0
    3.9293    1.0313    0.0000 C   0  0  0  0  0  0  0  0  0  0  0  0
    3.9293    0.2062    0.0000 C   0  0  0  0  0  0  0  0  0  0  0  0
    3.2148   -0.2063    0.0000 C   0  0  0  0  0  0  0  0  0  0  0  0
   -3.9293   -1.0313    0.0000 C   0  0  0  0  0  0  0  0  0  0  0  0
  1  2  1  0      
  2  3  1  0      
  3  4  1  0      
  4  5  1  0      
  5  6  1  0      
  1  6  1  0      
  7  8  1  0      
  7  9  1  0      
  1  8  1  0      
 10 11  1  0      
 12 13  1  0      
 13 14  2  0      
 14 15  1  0      
 15 16  2  0      
 16 17  1  0      
 12 17  2  0      
 11 12  1  0      
  4 10  1  0      
  9 18  1  0      
M  END

>  <RackCode>
HYCPK72335

>  <Cat. No.>
HY-100360

>  <Product Name>
MS049

>  <ROW>
A

>  <COLUMN>
20

>  <CAS No.>
1502816-23-0

>  <MWt>
248.36

>  <Target>
Histone Methyltransferase

>  <Saltdate>
Free Base

>  <Smiles>
CNCCN1CCC(OCC2=CC=CC=C2)CC1

>  <Solvent>
DMSO Solution

>  <Batch No.>
21823

>  <Quantity>
10mM  * 50uL

>  <Pathway>
Epigenetics

>  <Synonyms>


>  <Formula>
C15H24N2O

>  <Research_Area>
Cancer

>  <Clinical_Information>
No Development Reported

>  <SUPPLIER>
MedChemExpress

$$$$
Untitled Document
  ChemDraw03031709462D

 44 49  0  0  0  0  0  0  0  0999 V2000
    4.8194   -0.0835    0.0000 C   0  0  0  0  0  0  0  0  0  0  0  0
    4.1050   -0.4960    0.0000 C   0  0  0  0  0  0  0  0  0  0  0  0
    3.3905   -0.0835    0.0000 C   0  0  0  0  0  0  0  0  0  0  0  0
    2.6760   -0.4960    0.0000 C   0  0  0  0  0  0  0  0  0  0  0  0
    4.8194    0.7415    0.0000 O   0  0  0  0  0  0  0  0  0  0  0  0
    5.5338   -0.4960    0.0000 N   0  0  0  0  0  0  0  0  0  0  0  0
    1.9615   -0.0835    0.0000 O   0  0  0  0  0  0  0  0  0  0  0  0
    1.2472   -0.4960    0.0000 C   0  0  0  0  0  0  0  0  0  0  0  0
    0.5327   -0.0835    0.0000 C   0  0  0  0  0  0  0  0  0  0  0  0
   -0.1818   -0.4960    0.0000 C   0  0  0  0  0  0  0  0  0  0  0  0
   -0.1818   -1.3210    0.0000 C   0  0  0  0  0  0  0  0  0  0  0  0
    0.5327   -1.7334    0.0000 C   0  0  0  0  0  0  0  0  0  0  0  0
    1.2472   -1.3210    0.0000 C   0  0  0  0  0  0  0  0  0  0  0  0
   -4.2644    0.9085    0.0000 C   0  0  0  0  0  0  0  0  0  0  0  0
   -4.7493    1.5759    0.0000 N   0  0  0  0  0  0  0  0  0  0  0  0
   -5.5338    1.3210    0.0000 C   0  0  0  0  0  0  0  0  0  0  0  0
   -5.5338    0.4960    0.0000 C   0  0  0  0  0  0  0  0  0  0  0  0
   -4.7493    0.2411    0.0000 N   0  0  0  0  0  0  0  0  0  0  0  0
   -6.2483    1.7334    0.0000 C   0  0  0  0  0  0  0  0  0  0  0  0
   -6.9627    1.3210    0.0000 C   0  0  0  0  0  0  0  0  0  0  0  0
   -6.9627    0.4960    0.0000 C   0  0  0  0  0  0  0  0  0  0  0  0
   -6.2483    0.0835    0.0000 C   0  0  0  0  0  0  0  0  0  0  0  0
   -0.8962   -0.0835    0.0000 C   0  0  0  0  0  0  0  0  0  0  0  0
   -0.9825    0.7370    0.0000 N   0  0  0  0  0  0  0  0  0  0  0  0
   -1.7894    0.9085    0.0000 C   0  0  0  0  0  0  0  0  0  0  0  0
   -2.2019    0.1940    0.0000 C   0  0  0  0  0  0  0  0  0  0  0  0
   -1.6499   -0.4191    0.0000 N   0  0  0  0  0  0  0  0  0  0  0  0
   -2.2019    1.6230    0.0000 C   0  0  0  0  0  0  0  0  0  0  0  0
   -3.0269    1.6230    0.0000 C   0  0  0  0  0  0  0  0  0  0  0  0
   -3.4394    0.9085    0.0000 C   0  0  0  0  0  0  0  0  0  0  0  0
   -3.0269    0.1940    0.0000 C   0  0  0  0  0  0  0  0  0  0  0  0
   -7.6772    0.0835    0.0000 N   0  0  0  0  0  0  0  0  0  0  0  0
   -7.6772   -0.7415    0.0000 C   0  0  0  0  0  0  0  0  0  0  0  0
   -8.3917   -1.1540    0.0000 C   0  0  0  0  0  0  0  0  0  0  0  0
   -9.1061   -0.7415    0.0000 N   0  0  0  0  0  0  0  0  0  0  0  0
   -9.1061    0.0835    0.0000 C   0  0  0  0  0  0  0  0  0  0  0  0
   -8.3917    0.4960    0.0000 C   0  0  0  0  0  0  0  0  0  0  0  0
   -9.8205   -1.1540    0.0000 C   0  0  0  0  0  0  0  0  0  0  0  0
    6.2483   -0.0835    0.0000 C   0  0  0  0  0  0  0  0  0  0  0  0
    6.9627   -0.4960    0.0000 C   0  0  0  0  0  0  0  0  0  0  0  0
    7.6772   -0.0835    0.0000 C   0  0  0  0  0  0  0  0  0  0  0  0
    8.3917   -0.4960    0.0000 N   0  0  0  0  0  0  0  0  0  0  0  0
    9.1061   -0.0835    0.0000 N   0  3  0  0  0  0  0  0  0  0  0  0
    9.8205    0.3290    0.0000 N   0  5  0  0  0  0  0  0  0  0  0  0
  1  2  1  0      
  2  3  1  0      
  3  4  1  0      
  1  5  2  0      
  1  6  1  0      
  8  9  1  0      
  9 10  2  0      
 10 11  1  0      
 11 12  2  0      
 12 13  1  0      
  8 13  2  0      
  7  8  1  0      
 14 15  2  0      
 15 16  1  0      
 16 17  1  0      
 17 18  1  0      
 14 18  1  0      
 19 20  1  0      
 20 21  2  0      
 21 22  1  0      
 17 22  2  0      
 16 19  2  0      
 23 24  2  0      
 24 25  1  0      
 25 26  1  0      
 26 27  1  0      
 23 27  1  0      
 28 29  1  0      
 29 30  2  0      
 30 31  1  0      
 26 31  2  0      
 25 28  2  0      
 14 30  1  0      
 32 33  1  0      
 33 34  1  0      
 34 35  1  0      
 35 36  1  0      
 36 37  1  0      
 32 37  1  0      
 35 38  1  0      
 21 32  1  0      
 10 23  1  0      
  4  7  1  0      
 39 40  1  0      
 40 41  1  0      
 42 43  2  0      
 43 44  2  0      
 41 42  1  0      
  6 39  1  0      
M  CHG  2  43   1  44  -1
M  END

>  <RackCode>
HYCPK72335

>  <Cat. No.>
HY-15861

>  <Product Name>
Targapremir-210

>  <ROW>
B

>  <COLUMN>
20

>  <CAS No.>
1049722-30-6

>  <MWt>
592.69

>  <Target>
Apoptosis; MicroRNA

>  <Saltdate>
Free Base

>  <Smiles>
O=C(NCCCN=[N+]=[N-])CCCOC1=CC=CC(C2=NC3=CC=C(C4=NC5=CC=C(N6CCN(C)CC6)C=C5N4)C=C3N2)=C1

>  <Solvent>
DMSO Solution

>  <Batch No.>
58641

>  <Quantity>
10mM  * 50uL

>  <Pathway>
Apoptosis; Epigenetics

>  <Synonyms>
TGP-210

>  <Formula>
C32H36N10O2

>  <Research_Area>
Cancer

>  <Clinical_Information>
No Development Reported

>  <SUPPLIER>
MedChemExpress

$$$$
Untitled Document
  ChemDraw10162313042D

 25 28  0  0  0  0  0  0  0  0999 V2000
   -3.4548    0.2252    0.0000 N   0  0  0  0  0  0  0  0  0  0  0  0
   -3.0423    0.9396    0.0000 O   0  0  0  0  0  0  0  0  0  0  0  0
   -2.2353    0.7681    0.0000 C   0  0  0  0  0  0  0  0  0  0  0  0
   -2.1491   -0.0524    0.0000 C   0  0  0  0  0  0  0  0  0  0  0  0
   -1.4346   -0.4649    0.0000 C   0  0  0  0  0  0  0  0  0  0  0  0
   -1.4346   -1.2899    0.0000 C   0  0  0  0  0  0  0  0  0  0  0  0
   -0.7201   -1.7024    0.0000 N   0  0  0  0  0  0  0  0  0  0  0  0
   -0.0057   -1.2899    0.0000 C   0  0  0  0  0  0  0  0  0  0  0  0
    0.7789   -1.5448    0.0000 N   0  0  0  0  0  0  0  0  0  0  0  0
    1.2639   -0.8774    0.0000 C   0  0  0  0  0  0  0  0  0  0  0  0
    2.0889   -0.8774    0.0000 N   0  0  0  0  0  0  0  0  0  0  0  0
    2.5014   -1.5918    0.0000 C   0  0  0  0  0  0  0  0  0  0  0  0
    0.7789   -0.2099    0.0000 N   0  0  0  0  0  0  0  0  0  0  0  0
   -0.0057   -0.4649    0.0000 C   0  0  0  0  0  0  0  0  0  0  0  0
   -0.7201   -0.0524    0.0000 C   0  0  0  0  0  0  0  0  0  0  0  0
    1.0339    0.5747    0.0000 C   0  0  0  0  0  0  0  0  0  0  0  0
    1.8409    0.7462    0.0000 C   0  0  0  0  0  0  0  0  0  0  0  0
    2.0958    1.5308    0.0000 C   0  0  0  0  0  0  0  0  0  0  0  0
    2.9028    1.7024    0.0000 C   0  0  0  0  0  0  0  0  0  0  0  0
    3.4548    1.0893    0.0000 C   0  0  0  0  0  0  0  0  0  0  0  0
    3.1999    0.3047    0.0000 C   0  0  0  0  0  0  0  0  0  0  0  0
    2.3929    0.1331    0.0000 C   0  0  0  0  0  0  0  0  0  0  0  0
   -2.9028   -0.3879    0.0000 C   0  0  0  0  0  0  0  0  0  0  0  0
   -3.0743   -1.1949    0.0000 C   0  0  0  0  0  0  0  0  0  0  0  0
   -1.6222    1.3201    0.0000 C   0  0  0  0  0  0  0  0  0  0  0  0
  1  2  1  0      
  2  3  1  0      
  3  4  2  0      
  4  5  1  0      
  5  6  1  0      
  6  7  2  0      
  7  8  1  0      
  8  9  1  0      
  9 10  2  0      
 10 11  1  0      
 11 12  1  0      
 10 13  1  0      
 13 14  1  0      
  8 14  2  0      
 14 15  1  0      
  5 15  2  0      
 13 16  1  0      
 16 17  1  0      
 17 18  1  0      
 18 19  2  0      
 19 20  1  0      
 20 21  2  0      
 21 22  1  0      
 17 22  2  0      
  4 23  1  0      
  1 23  2  0      
 23 24  1  0      
  3 25  1  0      
M  END

>  <RackCode>
HYCPK72335

>  <Cat. No.>
HY-125236

>  <Product Name>
BET-IN-19

>  <ROW>
C

>  <COLUMN>
20

>  <CAS No.>
1643947-30-1

>  <MWt>
333.39

>  <Target>
Epigenetic Reader Domain

>  <Saltdate>


>  <Smiles>
CNC1=NC(N=CC(C2=C(C)ON=C2C)=C3)=C3N1CC4=CC=CC=C4

>  <Solvent>
DMSO Solution

>  <Batch No.>
417461

>  <Quantity>
10mM  * 50uL

>  <Pathway>
Epigenetics

>  <Synonyms>


>  <Formula>
C19H19N5O

>  <Research_Area>
Cancer

>  <Clinical_Information>
No Development Reported

>  <SUPPLIER>
MedChemExpress

$$$$
Untitled Document
  ChemDraw12092217242D

 51 51  0  0  0  0  0  0  0  0999 V2000
    9.8942    0.0086    0.0000 C   0  0  0  0  0  0  0  0  0  0  0  0
    9.1797   -0.4039    0.0000 C   0  0  0  0  0  0  0  0  0  0  0  0
    8.4653    0.0086    0.0000 C   0  0  0  0  0  0  0  0  0  0  0  0
    7.7509   -0.4039    0.0000 C   0  0  0  0  0  0  0  0  0  0  0  0
    7.0364    0.0086    0.0000 C   0  0  0  0  0  0  0  0  0  0  0  0
    6.3219   -0.4039    0.0000 C   0  0  0  0  0  0  0  0  0  0  0  0
    5.6074    0.0086    0.0000 C   0  0  0  0  0  0  0  0  0  0  0  0
    4.8930   -0.4039    0.0000 C   0  0  0  0  0  0  0  0  0  0  0  0
    4.1785    0.0086    0.0000 C   0  0  0  0  0  0  0  0  0  0  0  0
    3.4640   -0.4039    0.0000 C   0  0  0  0  0  0  0  0  0  0  0  0
    2.7496    0.0086    0.0000 C   0  0  0  0  0  0  0  0  0  0  0  0
    2.0350   -0.4039    0.0000 C   0  0  0  0  0  0  0  0  0  0  0  0
    1.3205    0.0086    0.0000 C   0  0  0  0  0  0  0  0  0  0  0  0
    0.6062   -0.4039    0.0000 C   0  0  0  0  0  0  0  0  0  0  0  0
   -0.1083    0.0086    0.0000 C   0  0  0  0  0  0  0  0  0  0  0  0
   -0.8227   -0.4039    0.0000 C   0  0  0  0  0  0  0  0  0  0  0  0
   -1.5372    0.0086    0.0000 C   0  0  0  0  0  0  0  0  0  0  0  0
   -2.2518   -0.4039    0.0000 C   0  0  0  0  0  0  0  0  0  0  0  0
   -2.9662    0.0086    0.0000 C   0  0  0  0  0  0  0  0  0  0  0  0
   -3.6807   -0.4039    0.0000 C   0  0  0  0  0  0  0  0  0  0  0  0
   -4.3951    0.0086    0.0000 C   0  0  0  0  0  0  0  0  0  0  0  0
   -5.1096   -0.4039    0.0000 C   0  0  0  0  0  0  0  0  0  0  0  0
    9.8942    0.8336    0.0000 O   0  0  0  0  0  0  0  0  0  0  0  0
   10.6086   -0.4039    0.0000 O   0  5  0  0  0  0  0  0  0  0  0  0
    4.1785    0.8336    0.0000 O   0  0  0  0  0  0  0  0  0  0  0  0
   -6.5777   -0.3269    0.0000 O   0  0  0  0  0  0  0  0  0  0  0  0
   -7.1298    0.2862    0.0000 C   0  0  0  0  0  0  0  0  0  0  0  0
   -6.7172    1.0006    0.0000 C   0  0  0  0  0  0  0  0  0  0  0  0
   -5.9103    0.8291    0.0000 C   0  0  0  0  0  0  0  0  0  0  0  0
   -5.8241    0.0086    0.0000 C   0  0  0  0  0  0  0  0  0  0  0  0
   -8.5979    0.2092    0.0000 O   0  0  0  0  0  0  0  0  0  0  0  0
   -7.8835    0.6216    0.0000 C   0  0  0  0  0  0  0  0  0  0  0  0
   -8.0549    1.4287    0.0000 C   0  0  0  0  0  0  0  0  0  0  0  0
   -8.8755    1.5150    0.0000 C   0  0  0  0  0  0  0  0  0  0  0  0
   -9.2110    0.7612    0.0000 C   0  0  0  0  0  0  0  0  0  0  0  0
   -9.8240    0.2092    0.0000 C   0  0  0  0  0  0  0  0  0  0  0  0
   -7.7973   -0.1988    0.0000 C   0  0  0  0  0  0  0  0  0  0  0  0
   -9.9956    1.0163    0.0000 C   0  0  0  0  0  0  0  0  0  0  0  0
  -10.6086    0.4641    0.0000 C   0  0  0  0  0  0  0  0  0  0  0  0
  -10.1671    1.8232    0.0000 O   0  0  0  0  0  0  0  0  0  0  0  0
   -3.6807   -1.2289    0.0000 C   0  0  0  0  0  0  0  0  0  0  0  0
   -2.2518   -1.2289    0.0000 C   0  0  0  0  0  0  0  0  0  0  0  0
    0.6062   -1.2289    0.0000 C   0  0  0  0  0  0  0  0  0  0  0  0
    2.0350   -1.2289    0.0000 C   0  0  0  0  0  0  0  0  0  0  0  0
    4.8930   -1.2289    0.0000 C   0  0  0  0  0  0  0  0  0  0  0  0
    6.3219   -1.2289    0.0000 C   0  0  0  0  0  0  0  0  0  0  0  0
    7.7509   -1.2289    0.0000 C   0  0  0  0  0  0  0  0  0  0  0  0
   -4.3951    0.8336    0.0000 O   0  0  0  0  0  0  0  0  0  0  0  0
   -2.9662    0.8336    0.0000 O   0  0  0  0  0  0  0  0  0  0  0  0
    2.7496    0.8336    0.0000 O   0  5  0  0  0  0  0  0  0  0  0  0
   -0.6605   -1.8232    0.0000 Ca  0  2  0  0  0  0  0  0  0  0  0  0
  1  2  1  0      
  2  3  1  0      
  3  4  1  0      
  4  5  1  0      
  5  6  1  0      
  6  7  1  0      
  7  8  1  0      
  8  9  1  0      
  9 10  1  0      
 10 11  2  0      
 11 12  1  0      
 12 13  1  0      
 13 14  1  0      
 14 15  1  0      
 15 16  1  0      
 16 17  2  0      
 17 18  1  0      
 18 19  1  0      
 19 20  1  0      
 20 21  1  0      
 21 22  1  0      
  1 23  2  0      
  1 24  1  0      
  9 25  2  0      
 26 27  1  0      
 27 28  1  0      
 28 29  1  0      
 29 30  1  0      
 26 30  1  0      
 32 31  1  6      
 32 33  1  0      
 33 34  1  0      
 34 35  1  0      
 31 35  1  0      
 27 32  1  0      
 35 36  1  1      
 27 37  1  1      
 38 39  1  0      
 38 40  1  1      
 35 38  1  0      
 30 22  1  1      
 20 41  1  1      
 18 42  1  1      
 14 43  1  6      
 12 44  1  6      
  8 45  1  6      
  6 46  1  6      
  4 47  1  1      
 21 48  1  6      
 19 49  1  6      
 11 50  1  0      
M  CHG  3  24  -1  50  -1  51   2
M  END

>  <RackCode>
HYCPK72335

>  <Cat. No.>
HY-13434A

>  <Product Name>
Ionomycin (calcium)

>  <ROW>
D

>  <COLUMN>
20

>  <CAS No.>
56092-82-1

>  <MWt>
747.07

>  <Target>
Antibiotic; Apoptosis; Bacterial; Calcium Channel; PKC

>  <Saltdate>
Calcium

>  <Smiles>
O=C([O-])CC[C@@H](C)C[C@H](C)C[C@H](C)C(/C=C([O-])/[C@H](C)C[C@H](C)C/C=C/[C@@H](C)[C@@H](O)[C@@H](C)[C@@H](O)C[C@@H]1CC[C@]([C@@H]2O[C@](C)([C@H](O)C)CC2)(C)O1)=O.[Ca+2]

>  <Solvent>
DMSO Solution

>  <Batch No.>
321443

>  <Quantity>
10mM  * 50uL

>  <Pathway>
Anti-infection; Apoptosis; Epigenetics; Membrane Transporter/Ion Channel; Neuronal Signaling; TGF-beta/Smad

>  <Synonyms>
SQ23377 (calcium)

>  <Formula>
C41H70CaO9

>  <Research_Area>
Cancer; Infection

>  <Clinical_Information>
No Development Reported

>  <SUPPLIER>
MedChemExpress

$$$$
Untitled Document
  ChemDraw02122017012D

 33 33  0  0  0  0  0  0  0  0999 V2000
    2.2556    0.8256    0.0000 C   0  0  0  0  0  0  0  0  0  0  0  0
    1.6425    0.2736    0.0000 C   0  0  0  0  0  0  0  0  0  0  0  0
    0.8579    0.5285    0.0000 C   0  0  0  0  0  0  0  0  0  0  0  0
    0.6864    1.3355    0.0000 C   0  0  0  0  0  0  0  0  0  0  0  0
    1.2995    1.8875    0.0000 C   0  0  0  0  0  0  0  0  0  0  0  0
    2.0841    1.6326    0.0000 C   0  0  0  0  0  0  0  0  0  0  0  0
    3.0402    0.5707    0.0000 C   0  0  0  0  0  0  0  0  0  0  0  0
    3.6236    1.1540    0.0000 N   0  0  0  0  0  0  0  0  0  0  0  0
    1.1279    2.6945    0.0000 C   0  0  0  0  0  0  0  0  0  0  0  0
    0.3981    0.1145    0.0000 C   0  0  0  0  0  0  0  0  0  0  0  0
   -1.1782    2.3750    0.0000 C   0  0  0  0  0  0  0  0  0  0  0  0
   -0.3532    2.3750    0.0000 N   0  0  0  0  0  0  0  0  0  0  0  0
   -0.0983    1.5904    0.0000 C   0  0  0  0  0  0  0  0  0  0  0  0
   -0.7657    1.1055    0.0000 C   0  0  0  0  0  0  0  0  0  0  0  0
   -1.4331    1.5904    0.0000 N   0  0  0  0  0  0  0  0  0  0  0  0
   -2.2178    1.3355    0.0000 C   0  0  0  0  0  0  0  0  0  0  0  0
   -0.7657   -1.3695    0.0000 N   0  0  0  0  0  0  0  0  0  0  0  0
   -0.0512   -0.9570    0.0000 C   0  0  0  0  0  0  0  0  0  0  0  0
   -0.0512   -0.1320    0.0000 C   0  0  0  0  0  0  0  0  0  0  0  0
   -0.7657    0.2805    0.0000 C   0  0  0  0  0  0  0  0  0  0  0  0
   -1.4802   -0.1320    0.0000 C   0  0  0  0  0  0  0  0  0  0  0  0
   -2.1946    0.2805    0.0000 C   0  0  0  0  0  0  0  0  0  0  0  0
   -2.9091   -0.1320    0.0000 C   0  0  0  0  0  0  0  0  0  0  0  0
   -2.9091   -0.9570    0.0000 C   0  0  0  0  0  0  0  0  0  0  0  0
   -2.1946   -1.3695    0.0000 C   0  0  0  0  0  0  0  0  0  0  0  0
   -1.4802   -0.9570    0.0000 C   0  0  0  0  0  0  0  0  0  0  0  0
   -3.6236   -1.3695    0.0000 F   0  0  0  0  0  0  0  0  0  0  0  0
   -0.2235   -2.6945    0.0000 H   0  0  0  0  0  0  0  0  0  0  0  0
    0.6015   -2.6945    0.0000 Cl  0  0  0  0  0  0  0  0  0  0  0  0
   -2.3290   -2.6945    0.0000 H   0  0  0  0  0  0  0  0  0  0  0  0
   -1.5040   -2.6945    0.0000 Cl  0  0  0  0  0  0  0  0  0  0  0  0
    2.0968   -2.6945    0.0000 H   0  0  0  0  0  0  0  0  0  0  0  0
    2.9218   -2.6945    0.0000 Cl  0  0  0  0  0  0  0  0  0  0  0  0
  1  2  1  0      
  2  3  2  0      
  3  4  1  0      
  4  5  2  0      
  5  6  1  0      
  1  6  2  0      
  7  8  1  0      
  1  7  1  0      
  5  9  1  0      
  3 10  1  0      
 11 12  2  0      
 12 13  1  0      
 13 14  2  0      
 14 15  1  0      
 11 15  1  0      
 15 16  1  0      
 17 18  2  0      
 18 19  1  0      
 19 20  2  0      
 20 21  1  0      
 21 22  2  0      
 22 23  1  0      
 23 24  2  0      
 24 25  1  0      
 25 26  2  0      
 17 26  1  0      
 21 26  1  0      
 24 27  1  0      
 14 20  1  0      
  4 13  1  0      
 28 29  1  0      
 30 31  1  0      
 32 33  1  0      
M  END

>  <RackCode>
HYCPK72335

>  <Cat. No.>
HY-114208A

>  <Product Name>
BI-9321 (trihydrochloride)

>  <ROW>
E

>  <COLUMN>
20

>  <CAS No.>
2387510-87-2

>  <MWt>
469.81

>  <Target>
Histone Methyltransferase

>  <Saltdate>
Hydrochloride

>  <Smiles>
NCC1=CC(C)=C(C2=C(C3=CC=NC4=CC(F)=CC=C34)N(C)C=N2)C(C)=C1.[H]Cl.[H]Cl.[H]Cl

>  <Solvent>
DMSO Solution

>  <Batch No.>
65433

>  <Quantity>
10mM  * 50uL

>  <Pathway>
Epigenetics

>  <Synonyms>


>  <Formula>
C22H24Cl3FN4

>  <Research_Area>
Cancer

>  <Clinical_Information>
No Development Reported

>  <SUPPLIER>
MedChemExpress

$$$$
Untitled Document
  ChemDraw02091709332D

 21 21  0  0  0  0  0  0  0  0999 V2000
   -2.1433   -0.8250    0.0000 C   0  0  0  0  0  0  0  0  0  0  0  0
   -2.8578   -0.4125    0.0000 C   0  0  0  0  0  0  0  0  0  0  0  0
   -3.5723   -0.8250    0.0000 C   0  0  0  0  0  0  0  0  0  0  0  0
   -4.2867   -0.4125    0.0000 C   0  0  0  0  0  0  0  0  0  0  0  0
   -4.2867    0.4125    0.0000 C   0  0  0  0  0  0  0  0  0  0  0  0
   -3.5723    0.8250    0.0000 C   0  0  0  0  0  0  0  0  0  0  0  0
   -2.8578    0.4125    0.0000 C   0  0  0  0  0  0  0  0  0  0  0  0
   -2.1433   -1.6500    0.0000 O   0  0  0  0  0  0  0  0  0  0  0  0
   -1.4289   -0.4125    0.0000 N   0  0  0  0  0  0  0  0  0  0  0  0
   -3.5723    1.6500    0.0000 C   0  0  0  0  0  0  0  0  0  0  0  0
   -5.0012   -0.8250    0.0000 C   0  0  0  0  0  0  0  0  0  0  0  0
   -0.7145   -0.8250    0.0000 O   0  0  0  0  0  0  0  0  0  0  0  0
   -0.0000   -0.4125    0.0000 C   0  0  0  0  0  0  0  0  0  0  0  0
    0.7145   -0.8250    0.0000 C   0  0  0  0  0  0  0  0  0  0  0  0
    1.4289   -0.4125    0.0000 C   0  0  0  0  0  0  0  0  0  0  0  0
    2.1433   -0.8250    0.0000 C   0  0  0  0  0  0  0  0  0  0  0  0
    2.8578   -0.4125    0.0000 C   0  0  0  0  0  0  0  0  0  0  0  0
    3.5723   -0.8250    0.0000 C   0  0  0  0  0  0  0  0  0  0  0  0
    3.5723   -1.6500    0.0000 O   0  0  0  0  0  0  0  0  0  0  0  0
    4.2867   -0.4125    0.0000 N   0  0  0  0  0  0  0  0  0  0  0  0
    5.0012   -0.8250    0.0000 O   0  0  0  0  0  0  0  0  0  0  0  0
  1  2  1  0      
  2  3  1  0      
  3  4  2  0      
  4  5  1  0      
  5  6  2  0      
  6  7  1  0      
  2  7  2  0      
  1  8  2  0      
  1  9  1  0      
  6 10  1  0      
  4 11  1  0      
 13 14  1  0      
 14 15  1  0      
 15 16  1  0      
 16 17  1  0      
 17 18  1  0      
 18 19  2  0      
 20 21  1  0      
 18 20  1  0      
 12 13  1  0      
  9 12  1  0      
M  END

>  <RackCode>
HYCPK72335

>  <Cat. No.>
HY-18998

>  <Product Name>
LMK-235

>  <ROW>
F

>  <COLUMN>
20

>  <CAS No.>
1418033-25-6

>  <MWt>
294.35

>  <Target>
HDAC

>  <Saltdate>
Free Base

>  <Smiles>
O=C(NOCCCCCC(NO)=O)C1=CC(C)=CC(C)=C1

>  <Solvent>
DMSO Solution

>  <Batch No.>
341540

>  <Quantity>
10mM  * 50uL

>  <Pathway>
Cell Cycle/DNA Damage; Epigenetics

>  <Synonyms>


>  <Formula>
C15H22N2O4

>  <Research_Area>
Cancer

>  <Clinical_Information>
No Development Reported

>  <SUPPLIER>
MedChemExpress

$$$$
Untitled Document
  ChemDraw05181617082D

 29 33  0  0  0  0  0  0  0  0999 V2000
   -1.0357    1.9184    0.0000 N   0  0  0  0  0  0  0  0  0  0  0  0
   -0.2314    1.7348    0.0000 C   0  0  0  0  0  0  0  0  0  0  0  0
    0.1265    0.9915    0.0000 C   0  0  0  0  0  0  0  0  0  0  0  0
   -0.2314    0.2482    0.0000 C   0  0  0  0  0  0  0  0  0  0  0  0
   -1.0357    0.0647    0.0000 C   0  0  0  0  0  0  0  0  0  0  0  0
   -1.6808    0.5790    0.0000 C   0  0  0  0  0  0  0  0  0  0  0  0
   -1.6808    1.4040    0.0000 C   0  0  0  0  0  0  0  0  0  0  0  0
   -2.3952    1.8165    0.0000 C   0  0  0  0  0  0  0  0  0  0  0  0
   -3.1097    1.4040    0.0000 C   0  0  0  0  0  0  0  0  0  0  0  0
   -3.1097    0.5790    0.0000 C   0  0  0  0  0  0  0  0  0  0  0  0
   -2.3952    0.1665    0.0000 C   0  0  0  0  0  0  0  0  0  0  0  0
   -0.3511    3.0643    0.0000 N   0  0  0  0  0  0  0  0  0  0  0  0
    0.1917    2.4431    0.0000 N   0  0  0  0  0  0  0  0  0  0  0  0
   -1.1097    2.7401    0.0000 C   0  0  0  0  0  0  0  0  0  0  0  0
    0.9515    0.9915    0.0000 C   0  0  0  0  0  0  0  0  0  0  0  0
    2.1845    0.1908    0.0000 O   0  0  0  0  0  0  0  0  0  0  0  0
    1.3640    0.2771    0.0000 C   0  0  0  0  0  0  0  0  0  0  0  0
    1.0285   -0.4766    0.0000 N   0  0  0  0  0  0  0  0  0  0  0  0
    1.6416   -1.0286    0.0000 N   0  0  0  0  0  0  0  0  0  0  0  0
    2.3560   -0.6161    0.0000 C   0  0  0  0  0  0  0  0  0  0  0  0
    3.1097   -0.9517    0.0000 C   0  0  0  0  0  0  0  0  0  0  0  0
   -1.8242    3.1526    0.0000 C   0  0  0  0  0  0  0  0  0  0  0  0
   -1.2193   -0.7397    0.0000 C   0  0  0  0  0  0  0  0  0  0  0  0
   -0.6146   -1.3008    0.0000 C   0  0  0  0  0  0  0  0  0  0  0  0
   -0.7981   -2.1051    0.0000 C   0  0  0  0  0  0  0  0  0  0  0  0
   -1.5865   -2.3483    0.0000 C   0  0  0  0  0  0  0  0  0  0  0  0
   -2.1913   -1.7871    0.0000 C   0  0  0  0  0  0  0  0  0  0  0  0
   -2.0077   -0.9828    0.0000 C   0  0  0  0  0  0  0  0  0  0  0  0
   -1.7701   -3.1526    0.0000 Cl  0  0  0  0  0  0  0  0  0  0  0  0
  1  2  1  0      
  2  3  1  0      
  3  4  1  0      
  4  5  2  0      
  5  6  1  0      
  6  7  1  0      
  1  7  1  0      
  8  9  1  0      
  9 10  2  0      
 10 11  1  0      
  6 11  2  0      
  7  8  2  0      
 12 13  1  0      
 12 14  2  0      
  1 14  1  0      
  2 13  2  0      
 16 17  1  0      
 17 18  2  0      
 18 19  1  0      
 19 20  2  0      
 16 20  1  0      
 20 21  1  0      
 15 17  1  0      
  3 15  1  6      
 14 22  1  0      
 23 24  1  0      
 24 25  2  0      
 25 26  1  0      
 26 27  2  0      
 27 28  1  0      
 23 28  2  0      
 26 29  1  0      
  5 23  1  0      
M  END

>  <RackCode>
HYCPK72335

>  <Cat. No.>
HY-12421

>  <Product Name>
BET-BAY 002

>  <ROW>
G

>  <COLUMN>
20

>  <CAS No.>
1588521-78-1

>  <MWt>
403.86

>  <Target>
Epigenetic Reader Domain

>  <Saltdate>
Free Base

>  <Smiles>
CC1=NN=C(C[C@H]2C3=NN=C(C)N3C4=CC=CC=C4C(C5=CC=C(Cl)C=C5)=C2)O1

>  <Solvent>
DMSO Solution

>  <Batch No.>
16597

>  <Quantity>
10mM  * 50uL

>  <Pathway>
Epigenetics

>  <Synonyms>


>  <Formula>
C22H18ClN5O

>  <Research_Area>
Cancer

>  <Clinical_Information>
No Development Reported

>  <SUPPLIER>
MedChemExpress

$$$$
Untitled Document
  ChemDraw04021911242D

 31 34  0  0  0  0  0  0  0  0999 V2000
   -3.2077    1.4395    0.0000 C   0  0  0  0  0  0  0  0  0  0  0  0
   -3.2077    0.6145    0.0000 C   0  0  0  0  0  0  0  0  0  0  0  0
   -2.4932    0.2020    0.0000 C   0  0  0  0  0  0  0  0  0  0  0  0
   -1.7787    0.6145    0.0000 C   0  0  0  0  0  0  0  0  0  0  0  0
   -1.7787    1.4395    0.0000 C   0  0  0  0  0  0  0  0  0  0  0  0
   -2.4932    1.8520    0.0000 C   0  0  0  0  0  0  0  0  0  0  0  0
   -1.0643    0.2020    0.0000 N   0  0  0  0  0  0  0  0  0  0  0  0
   -0.3498    0.6145    0.0000 C   0  0  0  0  0  0  0  0  0  0  0  0
   -0.3498    1.4395    0.0000 N   0  0  0  0  0  0  0  0  0  0  0  0
   -1.0643    1.8520    0.0000 C   0  0  0  0  0  0  0  0  0  0  0  0
   -1.0643    2.6741    0.0000 O   0  0  0  0  0  0  0  0  0  0  0  0
    0.3622    1.8505    0.0000 C   0  0  0  0  0  0  0  0  0  0  0  0
    1.0717    1.4409    0.0000 C   0  0  0  0  0  0  0  0  0  0  0  0
    1.7787    1.8491    0.0000 C   0  0  0  0  0  0  0  0  0  0  0  0
    0.3622    0.2034    0.0000 O   0  0  0  0  0  0  0  0  0  0  0  0
   -1.0643   -0.6202    0.0000 C   0  0  0  0  0  0  0  0  0  0  0  0
   -0.3523   -1.0313    0.0000 C   0  0  0  0  0  0  0  0  0  0  0  0
    2.4932    1.4366    0.0000 C   0  0  0  0  0  0  0  0  0  0  0  0
    3.2077    1.8491    0.0000 C   0  0  0  0  0  0  0  0  0  0  0  0
    3.2077    2.6741    0.0000 C   0  0  0  0  0  0  0  0  0  0  0  0
    2.4932    3.0866    0.0000 C   0  0  0  0  0  0  0  0  0  0  0  0
    1.7787    2.6741    0.0000 C   0  0  0  0  0  0  0  0  0  0  0  0
   -0.3523   -1.8563    0.0000 C   0  0  0  0  0  0  0  0  0  0  0  0
    0.3622   -2.2688    0.0000 C   0  0  0  0  0  0  0  0  0  0  0  0
    1.0767   -1.8563    0.0000 C   0  0  0  0  0  0  0  0  0  0  0  0
    1.0767   -1.0313    0.0000 C   0  0  0  0  0  0  0  0  0  0  0  0
    0.3622   -0.6188    0.0000 C   0  0  0  0  0  0  0  0  0  0  0  0
    1.7887   -2.2673    0.0000 C   0  0  0  0  0  0  0  0  0  0  0  0
    2.4982   -1.8577    0.0000 N   0  0  0  0  0  0  0  0  0  0  0  0
    1.7887   -3.0866    0.0000 O   0  0  0  0  0  0  0  0  0  0  0  0
    3.2052   -2.2659    0.0000 O   0  0  0  0  0  0  0  0  0  0  0  0
  1  2  2  0      
  2  3  1  0      
  3  4  2  0      
  4  5  1  0      
  5  6  2  0      
  6  1  1  0      
  4  7  1  0      
  7  8  1  0      
  8  9  1  0      
  9 10  1  0      
 10  5  1  0      
 10 11  2  0      
  9 12  1  0      
 12 13  1  0      
 13 14  1  0      
  8 15  2  0      
  7 16  1  0      
 16 17  1  0      
 14 18  2  0      
 18 19  1  0      
 19 20  2  0      
 20 21  1  0      
 21 22  2  0      
 22 14  1  0      
 17 23  2  0      
 23 24  1  0      
 24 25  2  0      
 25 26  1  0      
 26 27  2  0      
 27 17  1  0      
 25 28  1  0      
 28 29  1  0      
 28 30  2  0      
 29 31  1  0      
M  END

>  <RackCode>
HYCPK72335

>  <Cat. No.>
HY-126147

>  <Product Name>
J22352

>  <ROW>
H

>  <COLUMN>
20

>  <CAS No.>
2252395-44-9

>  <MWt>
415.44

>  <Target>
HDAC

>  <Saltdate>
Free Base

>  <Smiles>
O=C(C1=CC=CC=C1N2CC3=CC=C(C(NO)=O)C=C3)N(CCC4=CC=CC=C4)C2=O

>  <Solvent>
DMSO Solution

>  <Batch No.>
46577

>  <Quantity>
10mM  * 50uL

>  <Pathway>
Cell Cycle/DNA Damage; Epigenetics

>  <Synonyms>


>  <Formula>
C24H21N3O4

>  <Research_Area>
Cancer

>  <Clinical_Information>
No Development Reported

>  <SUPPLIER>
MedChemExpress

$$$$
Untitled Document
  ChemDraw08311714072D

 25 27  0  0  0  0  0  0  0  0999 V2000
   -1.4289    0.8250    0.0000 C   0  0  0  0  0  0  0  0  0  0  0  0
   -0.7145    0.4125    0.0000 C   0  0  0  0  0  0  0  0  0  0  0  0
   -0.7145   -0.4125    0.0000 C   0  0  0  0  0  0  0  0  0  0  0  0
   -1.4289   -0.8250    0.0000 C   0  0  0  0  0  0  0  0  0  0  0  0
   -2.1434   -0.4125    0.0000 C   0  0  0  0  0  0  0  0  0  0  0  0
   -2.8579   -0.8250    0.0000 C   0  0  0  0  0  0  0  0  0  0  0  0
   -3.5724   -0.4125    0.0000 C   0  0  0  0  0  0  0  0  0  0  0  0
   -3.5724    0.4125    0.0000 C   0  0  0  0  0  0  0  0  0  0  0  0
   -2.8579    0.8250    0.0000 C   0  0  0  0  0  0  0  0  0  0  0  0
   -2.1434    0.4125    0.0000 C   0  0  0  0  0  0  0  0  0  0  0  0
    0.0000    0.8250    0.0000 C   0  0  0  0  0  0  0  0  0  0  0  0
    0.0000    1.6500    0.0000 O   0  0  0  0  0  0  0  0  0  0  0  0
    0.7145    0.4125    0.0000 N   0  0  0  0  0  0  0  0  0  0  0  0
    0.0000   -0.8250    0.0000 O   0  0  0  0  0  0  0  0  0  0  0  0
    0.0000   -1.6500    0.0000 P   0  0  0  0  0  0  0  0  0  0  0  0
   -0.7145   -2.0625    0.0000 O   0  0  0  0  0  0  0  0  0  0  0  0
    0.7145   -1.2375    0.0000 O   0  0  0  0  0  0  0  0  0  0  0  0
    0.7145   -2.0625    0.0000 O   0  0  0  0  0  0  0  0  0  0  0  0
    1.4289    0.8250    0.0000 C   0  0  0  0  0  0  0  0  0  0  0  0
    1.4289    1.6500    0.0000 C   0  0  0  0  0  0  0  0  0  0  0  0
    2.1434    2.0625    0.0000 C   0  0  0  0  0  0  0  0  0  0  0  0
    2.8579    1.6500    0.0000 C   0  0  0  0  0  0  0  0  0  0  0  0
    2.8579    0.8250    0.0000 C   0  0  0  0  0  0  0  0  0  0  0  0
    2.1434    0.4125    0.0000 C   0  0  0  0  0  0  0  0  0  0  0  0
    3.5724    2.0625    0.0000 Cl  0  0  0  0  0  0  0  0  0  0  0  0
  1  2  1  0      
  2  3  2  0      
  3  4  1  0      
  4  5  2  0      
  5  6  1  0      
  6  7  2  0      
  7  8  1  0      
  8  9  2  0      
  9 10  1  0      
  1 10  2  0      
  5 10  1  0      
 11 12  2  0      
 11 13  1  0      
  2 11  1  0      
 15 16  2  0      
 15 17  1  0      
 15 18  1  0      
 14 15  1  0      
  3 14  1  0      
 19 20  1  0      
 20 21  2  0      
 21 22  1  0      
 22 23  2  0      
 23 24  1  0      
 19 24  2  0      
 22 25  1  0      
 13 19  1  0      
M  END

>  <RackCode>
HYCPK72335

>  <Cat. No.>
HY-103299

>  <Product Name>
KG-501

>  <ROW>
I

>  <COLUMN>
20

>  <CAS No.>
18228-17-6

>  <MWt>
377.72

>  <Target>
Epigenetic Reader Domain

>  <Saltdate>
Free Acid

>  <Smiles>
O=C(C1=C(OP(O)(O)=O)C=C2C=CC=CC2=C1)NC3=CC=C(Cl)C=C3

>  <Solvent>
DMSO Solution

>  <Batch No.>
154428

>  <Quantity>
10mM  * 50uL

>  <Pathway>
Epigenetics

>  <Synonyms>
Naphthol AS-E phosphate

>  <Formula>
C17H13ClNO5P

>  <Research_Area>
Inflammation/Immunology

>  <Clinical_Information>
No Development Reported

>  <SUPPLIER>
MedChemExpress

$$$$
Untitled Document
  ChemDraw01142012512D

 53 55  0  0  0  0  0  0  0  0999 V2000
   -1.1274   -4.1747    0.0000 C   0  0  0  0  0  0  0  0  0  0  0  0
   -0.4129   -3.7622    0.0000 C   0  0  0  0  0  0  0  0  0  0  0  0
    0.3015   -4.1747    0.0000 C   0  0  0  0  0  0  0  0  0  0  0  0
    1.0160   -3.7622    0.0000 C   0  0  0  0  0  0  0  0  0  0  0  0
   -1.1274   -4.9997    0.0000 O   0  0  0  0  0  0  0  0  0  0  0  0
   -1.8419   -3.7622    0.0000 O   0  0  0  0  0  0  0  0  0  0  0  0
    1.0160   -2.9372    0.0000 O   0  0  0  0  0  0  0  0  0  0  0  0
    1.7305   -4.1747    0.0000 O   0  0  0  0  0  0  0  0  0  0  0  0
   -3.4018   -4.2060    0.0000 C   0  0  0  0  0  0  0  0  0  0  0  0
   -1.2197    2.5247    0.0000 C   0  0  0  0  0  0  0  0  0  0  0  0
   -1.9341    2.9372    0.0000 C   0  0  0  0  0  0  0  0  0  0  0  0
   -2.6486    2.5247    0.0000 C   0  0  0  0  0  0  0  0  0  0  0  0
   -3.3631    2.9372    0.0000 C   0  0  0  0  0  0  0  0  0  0  0  0
   -3.3631    3.7622    0.0000 C   0  0  0  0  0  0  0  0  0  0  0  0
   -2.6486    4.1747    0.0000 C   0  0  0  0  0  0  0  0  0  0  0  0
   -1.9341    3.7622    0.0000 C   0  0  0  0  0  0  0  0  0  0  0  0
   -1.2197    1.6997    0.0000 O   0  0  0  0  0  0  0  0  0  0  0  0
   -0.5052    2.9372    0.0000 N   0  0  0  0  0  0  0  0  0  0  0  0
   -2.6486    1.6997    0.0000 O   0  0  0  0  0  0  0  0  0  0  0  0
   -4.7920    0.4622    0.0000 C   0  0  0  0  0  0  0  0  0  0  0  0
   -4.0776    0.0497    0.0000 N   0  0  0  0  0  0  0  0  0  0  0  0
   -3.3631    0.4622    0.0000 C   0  0  0  0  0  0  0  0  0  0  0  0
   -3.3631    1.2872    0.0000 C   0  0  0  0  0  0  0  0  0  0  0  0
   -4.0776    1.6997    0.0000 C   0  0  0  0  0  0  0  0  0  0  0  0
   -4.7920    1.2872    0.0000 N   0  0  0  0  0  0  0  0  0  0  0  0
   -2.4351   -0.7472    0.0000 C   0  0  0  0  0  0  0  0  0  0  0  0
   -2.6486    0.0497    0.0000 N   0  0  0  0  0  0  0  0  0  0  0  0
   -1.8517    0.2632    0.0000 C   0  0  0  0  0  0  0  0  0  0  0  0
   -1.6382   -0.5337    0.0000 C   0  0  0  0  0  0  0  0  0  0  0  0
   -0.9237   -0.1212    0.0000 C   0  0  0  0  0  0  0  0  0  0  0  0
   -0.2093   -0.5337    0.0000 C   0  0  0  0  0  0  0  0  0  0  0  0
   -0.2093   -1.3587    0.0000 N   0  0  0  0  0  0  0  0  0  0  0  0
   -0.9237   -1.7712    0.0000 C   0  0  0  0  0  0  0  0  0  0  0  0
   -1.6382   -1.3587    0.0000 C   0  0  0  0  0  0  0  0  0  0  0  0
    0.5052   -1.7712    0.0000 C   0  0  0  0  0  0  0  0  0  0  0  0
    1.2197   -1.3587    0.0000 C   0  0  0  0  0  0  0  0  0  0  0  0
    1.9342   -1.7712    0.0000 C   0  0  0  0  0  0  0  0  0  0  0  0
    2.6486   -1.3587    0.0000 C   0  0  0  0  0  0  0  0  0  0  0  0
    2.6486   -0.5337    0.0000 C   0  0  0  0  0  0  0  0  0  0  0  0
    1.9342   -0.1212    0.0000 C   0  0  0  0  0  0  0  0  0  0  0  0
    1.2197   -0.5337    0.0000 C   0  0  0  0  0  0  0  0  0  0  0  0
    3.3631   -0.1212    0.0000 N   0  0  0  0  0  0  0  0  0  0  0  0
    4.0776   -0.5337    0.0000 S   0  0  0  0  0  0  0  0  0  0  0  0
    3.6651   -1.2481    0.0000 O   0  0  0  0  0  0  0  0  0  0  0  0
    4.4901    0.1808    0.0000 O   0  0  0  0  0  0  0  0  0  0  0  0
    4.7920   -0.9462    0.0000 C   0  0  0  0  0  0  0  0  0  0  0  0
    0.2093    2.5247    0.0000 C   0  0  0  0  0  0  0  0  0  0  0  0
    0.2093    1.6997    0.0000 C   0  0  0  0  0  0  0  0  0  0  0  0
    0.9237    2.9372    0.0000 C   0  0  0  0  0  0  0  0  0  0  0  0
   -0.5052    3.7622    0.0000 C   0  0  0  0  0  0  0  0  0  0  0  0
    0.2093    4.1747    0.0000 C   0  0  0  0  0  0  0  0  0  0  0  0
   -1.2197    4.1747    0.0000 C   0  0  0  0  0  0  0  0  0  0  0  0
   -2.6486    4.9997    0.0000 F   0  0  0  0  0  0  0  0  0  0  0  0
  1  2  1  0      
  2  3  2  0      
  3  4  1  0      
  1  5  2  0      
  1  6  1  0      
  4  7  2  0      
  4  8  1  0      
 10 11  1  0      
 11 12  1  0      
 12 13  2  0      
 13 14  1  0      
 14 15  2  0      
 15 16  1  0      
 11 16  2  0      
 10 17  2  0      
 10 18  1  0      
 20 21  1  0      
 21 22  2  0      
 22 23  1  0      
 23 24  2  0      
 24 25  1  0      
 20 25  2  0      
 26 27  1  0      
 27 28  1  0      
 28 29  1  0      
 29 30  1  0      
 30 31  1  0      
 31 32  1  0      
 32 33  1  0      
 33 34  1  0      
 26 29  1  0      
 29 34  1  0      
 36 37  1  0      
 37 38  1  0      
 38 39  1  0      
 39 40  1  0      
 40 41  1  0      
 36 41  1  0      
 43 44  2  0      
 43 45  2  0      
 43 46  1  0      
 42 43  1  0      
 39 42  1  1      
 36 35  1  6      
 32 35  1  0      
 22 27  1  0      
 19 23  1  0      
 12 19  1  0      
 47 48  1  0      
 47 49  1  0      
 18 47  1  0      
 50 51  1  0      
 50 52  1  0      
 18 50  1  0      
 15 53  1  0      
A    9
\s3/2
M  END

>  <RackCode>
HYCPK72335

>  <Cat. No.>
HY-114162A

>  <Product Name>
VTP50469 (fumarate)

>  <ROW>
J

>  <COLUMN>
20

>  <CAS No.>
2169919-29-1

>  <MWt>
804.93

>  <Target>
Apoptosis; Epigenetic Reader Domain

>  <Saltdate>
Fumarate

>  <Smiles>
O=C(O)/C=C/C(O)=O.O=C(N(C(C)C)C(C)C)C1=CC(F)=CC=C1OC2=CN=CN=C2N3CC4(CCN(C[C@H]5CC[C@H](NS(=O)(C)=O)CC5)CC4)C3.[3/2]

>  <Solvent>
DMSO Solution

>  <Batch No.>
145471

>  <Quantity>
10mM  * 50uL

>  <Pathway>
Apoptosis; Epigenetics

>  <Synonyms>


>  <Formula>
C32H47FN6O4S.3/2C4H4O4

>  <Research_Area>
Cancer

>  <Clinical_Information>
No Development Reported

>  <SUPPLIER>
MedChemExpress

$$$$
Untitled Document
  ChemDraw09092109222D

 55 57  0  0  0  0  0  0  0  0999 V2000
   -3.2151   -0.2062    0.0000 O   0  0  0  0  0  0  0  0  0  0  0  0
   -3.2151   -1.0313    0.0000 C   0  0  0  0  0  0  0  0  0  0  0  0
   -2.5006   -1.4437    0.0000 N   0  0  0  0  0  0  0  0  0  0  0  0
   -1.7862   -1.0313    0.0000 C   0  0  0  0  0  0  0  0  0  0  0  0
   -1.7862   -0.2062    0.0000 C   0  0  0  0  0  0  0  0  0  0  0  0
   -2.4536    0.2787    0.0000 C   0  0  0  0  0  0  0  0  0  0  0  0
   -2.1987    1.0633    0.0000 C   0  0  0  0  0  0  0  0  0  0  0  0
   -1.3737    1.0633    0.0000 C   0  0  0  0  0  0  0  0  0  0  0  0
   -1.1187    0.2787    0.0000 C   0  0  0  0  0  0  0  0  0  0  0  0
   -1.0717   -1.4437    0.0000 C   0  0  0  0  0  0  0  0  0  0  0  0
   -0.3572   -1.0313    0.0000 N   0  0  0  0  0  0  0  0  0  0  0  0
    0.3572   -1.4437    0.0000 C   0  0  0  0  0  0  0  0  0  0  0  0
    0.3572   -2.2687    0.0000 C   0  0  0  0  0  0  0  0  0  0  0  0
    1.0717   -2.6812    0.0000 C   0  0  0  0  0  0  0  0  0  0  0  0
   -0.3572   -2.6812    0.0000 C   0  0  0  0  0  0  0  0  0  0  0  0
   -0.3572   -3.5062    0.0000 C   0  0  0  0  0  0  0  0  0  0  0  0
    1.0717   -1.0313    0.0000 C   0  0  0  0  0  0  0  0  0  0  0  0
    1.7862   -1.4437    0.0000 N   0  0  0  0  0  0  0  0  0  0  0  0
    2.5006   -1.0313    0.0000 C   0  0  0  0  0  0  0  0  0  0  0  0
    2.5006   -0.2062    0.0000 C   0  0  0  0  0  0  0  0  0  0  0  0
    3.2151    0.2062    0.0000 C   0  0  0  0  0  0  0  0  0  0  0  0
    3.2151    1.0313    0.0000 C   0  0  0  0  0  0  0  0  0  0  0  0
    3.9296    1.4437    0.0000 C   0  0  0  0  0  0  0  0  0  0  0  0
    3.9296    2.2687    0.0000 N   0  0  0  0  0  0  0  0  0  0  0  0
    4.6441    2.6812    0.0000 C   0  0  0  0  0  0  0  0  0  0  0  0
    4.6441    3.5062    0.0000 C   0  0  0  0  0  0  0  0  0  0  0  0
    3.2151    2.6812    0.0000 C   0  0  0  0  0  0  0  0  0  0  0  0
    2.5006    2.2687    0.0000 C   0  0  0  0  0  0  0  0  0  0  0  0
    3.2151   -1.4437    0.0000 C   0  0  0  0  0  0  0  0  0  0  0  0
    3.9296   -1.0313    0.0000 N   0  0  0  0  0  0  0  0  0  0  0  0
    4.6441   -1.4437    0.0000 C   0  0  0  0  0  0  0  0  0  0  0  0
    4.6441   -2.2687    0.0000 C   0  0  0  0  0  0  0  0  0  0  0  0
    5.3585   -2.6812    0.0000 O   0  0  0  0  0  0  0  0  0  0  0  0
    5.3585   -1.0313    0.0000 C   0  0  0  0  0  0  0  0  0  0  0  0
    6.0730   -1.4437    0.0000 N   0  0  0  0  0  0  0  0  0  0  0  0
    6.7875   -1.0313    0.0000 C   0  0  0  0  0  0  0  0  0  0  0  0
    7.5019   -1.4437    0.0000 C   0  0  0  0  0  0  0  0  0  0  0  0
    8.2164   -1.8563    0.0000 C   0  0  0  0  0  0  0  0  0  0  0  0
    5.3585   -0.2062    0.0000 O   0  0  0  0  0  0  0  0  0  0  0  0
    3.2151   -2.2687    0.0000 O   0  0  0  0  0  0  0  0  0  0  0  0
    1.0717   -0.2062    0.0000 O   0  0  0  0  0  0  0  0  0  0  0  0
   -1.0717   -2.2687    0.0000 O   0  0  0  0  0  0  0  0  0  0  0  0
   -3.9296   -1.4437    0.0000 C   0  0  0  0  0  0  0  0  0  0  0  0
   -3.9296   -2.2687    0.0000 C   0  0  0  0  0  0  0  0  0  0  0  0
   -4.6441   -2.6812    0.0000 C   0  0  0  0  0  0  0  0  0  0  0  0
   -5.3585   -2.2687    0.0000 C   0  0  0  0  0  0  0  0  0  0  0  0
   -6.0730   -2.6812    0.0000 O   0  0  0  0  0  0  0  0  0  0  0  0
   -6.7875   -2.2687    0.0000 C   0  0  0  0  0  0  0  0  0  0  0  0
   -7.5019   -2.6812    0.0000 C   0  0  0  0  0  0  0  0  0  0  0  0
   -8.2164   -2.2687    0.0000 C   0  0  0  0  0  0  0  0  0  0  0  0
   -8.2164   -1.4437    0.0000 C   0  0  0  0  0  0  0  0  0  0  0  0
   -7.5019   -1.0313    0.0000 C   0  0  0  0  0  0  0  0  0  0  0  0
   -6.7875   -1.4437    0.0000 C   0  0  0  0  0  0  0  0  0  0  0  0
   -5.3585   -1.4437    0.0000 C   0  0  0  0  0  0  0  0  0  0  0  0
   -4.6441   -1.0313    0.0000 C   0  0  0  0  0  0  0  0  0  0  0  0
  1  2  2  0      
  2  3  1  0      
  3  4  1  0      
  4  5  1  1      
  5  6  1  0      
  6  7  1  0      
  7  8  1  0      
  8  9  1  0      
  5  9  1  0      
  4 10  1  0      
 10 11  1  0      
 12 11  1  1      
 12 13  1  0      
 13 14  1  1      
 13 15  1  0      
 15 16  1  0      
 12 17  1  0      
 17 18  1  0      
 18 19  1  0      
 19 20  1  1      
 20 21  1  0      
 21 22  1  0      
 22 23  1  0      
 23 24  1  0      
 24 25  1  0      
 25 26  1  0      
 24 27  1  0      
 27 28  1  0      
 19 29  1  0      
 29 30  1  0      
 30 31  1  0      
 31 32  1  6      
 32 33  1  0      
 31 34  1  0      
 34 35  1  0      
 35 36  1  0      
 36 37  1  0      
 37 38  3  0      
 34 39  2  0      
 29 40  2  0      
 17 41  2  0      
 10 42  2  0      
  2 43  1  0      
 43 44  2  0      
 44 45  1  0      
 45 46  2  0      
 46 47  1  0      
 47 48  1  0      
 48 49  2  0      
 49 50  1  0      
 50 51  2  0      
 51 52  1  0      
 52 53  2  0      
 48 53  1  0      
 46 54  1  0      
 54 55  2  0      
 43 55  1  0      
M  END

>  <RackCode>
HYCPK72335

>  <Cat. No.>
HY-141716

>  <Product Name>
SW2_110A

>  <ROW>
K

>  <COLUMN>
20

>  <CAS No.>


>  <MWt>
760.96

>  <Target>
Histone Methyltransferase

>  <Saltdate>


>  <Smiles>
O=C(C1=CC=C(C=C1)OC2=CC=CC=C2)N[C@H](C(N[C@@H](C(N[C@H](C(N[C@H](C(NCC#C)=O)CO)=O)CCCCN(CC)CC)=O)[C@H](CC)C)=O)C3CCCC3

>  <Solvent>
DMSO Solution

>  <Batch No.>
116698

>  <Quantity>
10mM  * 50uL

>  <Pathway>
Epigenetics

>  <Synonyms>


>  <Formula>
C42H60N6O7

>  <Research_Area>
Cancer

>  <Clinical_Information>
No Development Reported

>  <SUPPLIER>
MedChemExpress

$$$$
Untitled Document
  ChemDraw05101917272D

 39 43  0  0  0  0  0  0  0  0999 V2000
   -2.7377   -1.2375    0.0000 O   0  0  0  0  0  0  0  0  0  0  0  0
   -2.7377   -0.4125    0.0000 C   0  0  0  0  0  0  0  0  0  0  0  0
   -2.0233    0.0000    0.0000 N   0  0  0  0  0  0  0  0  0  0  0  0
   -1.3088   -0.4125    0.0000 C   0  0  0  0  0  0  0  0  0  0  0  0
   -0.5943    0.0000    0.0000 C   0  0  0  0  0  0  0  0  0  0  0  0
    0.1202   -0.4125    0.0000 C   0  0  0  0  0  0  0  0  0  0  0  0
    0.8346    0.0000    0.0000 O   0  0  0  0  0  0  0  0  0  0  0  0
    1.5491   -0.4125    0.0000 C   0  0  0  0  0  0  0  0  0  0  0  0
    1.5491   -1.2375    0.0000 C   0  0  0  0  0  0  0  0  0  0  0  0
    2.2636   -1.6500    0.0000 C   0  0  0  0  0  0  0  0  0  0  0  0
    2.9780   -1.2375    0.0000 C   0  0  0  0  0  0  0  0  0  0  0  0
    3.7627   -1.4924    0.0000 N   0  0  0  0  0  0  0  0  0  0  0  0
    4.2476   -0.8250    0.0000 C   0  0  0  0  0  0  0  0  0  0  0  0
    5.0726   -0.8250    0.0000 N   0  0  0  0  0  0  0  0  0  0  0  0
    5.4851   -0.1105    0.0000 C   0  0  0  0  0  0  0  0  0  0  0  0
    6.3101   -0.1105    0.0000 C   0  0  0  0  0  0  0  0  0  0  0  0
    7.0246    0.3020    0.0000 C   0  0  0  0  0  0  0  0  0  0  0  0
    7.0246   -0.5230    0.0000 C   0  0  0  0  0  0  0  0  0  0  0  0
    5.0726    0.6039    0.0000 O   0  0  0  0  0  0  0  0  0  0  0  0
    3.7627   -0.1576    0.0000 S   0  0  0  0  0  0  0  0  0  0  0  0
    2.9780   -0.4125    0.0000 C   0  0  0  0  0  0  0  0  0  0  0  0
    2.2636    0.0000    0.0000 C   0  0  0  0  0  0  0  0  0  0  0  0
    2.2636    0.8250    0.0000 C   0  0  0  0  0  0  0  0  0  0  0  0
    2.2636    1.6500    0.0000 N   0  0  0  0  0  0  0  0  0  0  0  0
    0.1202   -1.2375    0.0000 C   0  0  0  0  0  0  0  0  0  0  0  0
   -0.5943   -1.6500    0.0000 C   0  0  0  0  0  0  0  0  0  0  0  0
   -1.3088   -1.2375    0.0000 C   0  0  0  0  0  0  0  0  0  0  0  0
   -2.0233   -1.6500    0.0000 F   0  0  0  0  0  0  0  0  0  0  0  0
   -3.4522    0.0000    0.0000 C   0  0  0  0  0  0  0  0  0  0  0  0
   -4.1667   -0.4125    0.0000 C   0  0  0  0  0  0  0  0  0  0  0  0
   -4.1667   -1.2375    0.0000 C   0  0  0  0  0  0  0  0  0  0  0  0
   -4.8811   -1.6500    0.0000 C   0  0  0  0  0  0  0  0  0  0  0  0
   -5.5956   -1.2375    0.0000 C   0  0  0  0  0  0  0  0  0  0  0  0
   -5.5956   -0.4125    0.0000 C   0  0  0  0  0  0  0  0  0  0  0  0
   -6.3101    0.0000    0.0000 C   0  0  0  0  0  0  0  0  0  0  0  0
   -6.3101    0.8250    0.0000 F   0  0  0  0  0  0  0  0  0  0  0  0
   -7.0246    0.4125    0.0000 F   0  0  0  0  0  0  0  0  0  0  0  0
   -7.0246   -0.4125    0.0000 F   0  0  0  0  0  0  0  0  0  0  0  0
   -4.8811    0.0000    0.0000 C   0  0  0  0  0  0  0  0  0  0  0  0
  1  2  2  0      
  2  3  1  0      
  3  4  1  0      
  4  5  2  0      
  5  6  1  0      
  6  7  1  0      
  7  8  1  0      
  8  9  2  0      
  9 10  1  0      
 10 11  2  0      
 11 12  1  0      
 12 13  2  0      
 13 14  1  0      
 14 15  1  0      
 15 16  1  0      
 16 17  1  0      
 17 18  1  0      
 16 18  1  0      
 15 19  2  0      
 13 20  1  0      
 20 21  1  0      
 11 21  1  0      
 21 22  2  0      
  8 22  1  0      
 22 23  1  0      
 23 24  3  0      
  6 25  2  0      
 25 26  1  0      
 26 27  2  0      
  4 27  1  0      
 27 28  1  0      
  2 29  1  0      
 29 30  1  0      
 30 31  2  0      
 31 32  1  0      
 32 33  2  0      
 33 34  1  0      
 34 35  1  0      
 35 36  1  0      
 35 37  1  0      
 35 38  1  0      
 34 39  2  0      
 30 39  1  0      
M  END

>  <RackCode>
HYCPK72335

>  <Cat. No.>
HY-15767

>  <Product Name>
TAK-632

>  <ROW>
L

>  <COLUMN>
20

>  <CAS No.>
1228591-30-7

>  <MWt>
554.52

>  <Target>
Aurora Kinase; Raf

>  <Saltdate>
Free Base

>  <Smiles>
O=C(NC1=CC(OC2=CC=C3N=C(NC(C4CC4)=O)SC3=C2C#N)=CC=C1F)CC5=CC=CC(C(F)(F)F)=C5

>  <Solvent>
DMSO Solution

>  <Batch No.>
10219

>  <Quantity>
10mM  * 50uL

>  <Pathway>
Cell Cycle/DNA Damage; Epigenetics; MAPK/ERK Pathway

>  <Synonyms>


>  <Formula>
C27H18F4N4O3S

>  <Research_Area>
Cancer

>  <Clinical_Information>
No Development Reported

>  <SUPPLIER>
MedChemExpress

$$$$
Untitled Document
  ChemDraw05101917272D

 23 25  0  0  0  0  0  0  0  0999 V2000
   -1.4289   -2.0625    0.0000 O   0  0  0  0  0  0  0  0  0  0  0  0
   -0.7145   -1.6500    0.0000 C   0  0  0  0  0  0  0  0  0  0  0  0
    0.0000   -2.0625    0.0000 C   0  0  0  0  0  0  0  0  0  0  0  0
    0.7145   -1.6500    0.0000 C   0  0  0  0  0  0  0  0  0  0  0  0
    0.7145   -0.8250    0.0000 C   0  0  0  0  0  0  0  0  0  0  0  0
    1.4289   -0.4125    0.0000 N   0  0  0  0  0  0  0  0  0  0  0  0
    1.4289    0.4125    0.0000 C   0  0  0  0  0  0  0  0  0  0  0  0
    0.7145    0.8250    0.0000 C   0  0  0  0  0  0  0  0  0  0  0  0
    0.0000    0.4125    0.0000 C   0  0  0  0  0  0  0  0  0  0  0  0
   -0.7145    0.8250    0.0000 C   0  0  0  0  0  0  0  0  0  0  0  0
   -1.4289    0.4125    0.0000 O   0  0  0  0  0  0  0  0  0  0  0  0
   -2.1434    0.8250    0.0000 C   0  0  0  0  0  0  0  0  0  0  0  0
   -0.7145    1.6500    0.0000 C   0  0  0  0  0  0  0  0  0  0  0  0
   -1.4289    2.0625    0.0000 O   0  0  0  0  0  0  0  0  0  0  0  0
   -2.1434    1.6500    0.0000 C   0  0  0  0  0  0  0  0  0  0  0  0
    0.0000    2.0625    0.0000 C   0  0  0  0  0  0  0  0  0  0  0  0
    0.7145    1.6500    0.0000 C   0  0  0  0  0  0  0  0  0  0  0  0
    1.4289    2.0625    0.0000 N   0  0  0  0  0  0  0  0  0  0  0  0
    2.1434    1.6500    0.0000 C   0  0  0  0  0  0  0  0  0  0  0  0
    2.1434    0.8250    0.0000 N   0  0  0  0  0  0  0  0  0  0  0  0
    0.0000   -0.4125    0.0000 C   0  0  0  0  0  0  0  0  0  0  0  0
   -0.7145   -0.8250    0.0000 C   0  0  0  0  0  0  0  0  0  0  0  0
   -1.4289   -0.4125    0.0000 Br  0  0  0  0  0  0  0  0  0  0  0  0
  1  2  1  0      
  2  3  2  0      
  3  4  1  0      
  4  5  2  0      
  5  6  1  0      
  6  7  1  0      
  7  8  2  0      
  8  9  1  0      
  9 10  2  0      
 10 11  1  0      
 11 12  1  0      
 10 13  1  0      
 13 14  1  0      
 14 15  1  0      
 13 16  2  0      
 16 17  1  0      
  8 17  1  0      
 17 18  2  0      
 18 19  1  0      
 19 20  2  0      
  7 20  1  0      
  5 21  1  0      
 21 22  2  0      
  2 22  1  0      
 22 23  1  0      
M  END

>  <RackCode>
HYCPK72335

>  <Cat. No.>
HY-13895

>  <Product Name>
WHI-P154

>  <ROW>
M

>  <COLUMN>
20

>  <CAS No.>
211555-04-3

>  <MWt>
376.20

>  <Target>
Apoptosis; EGFR; JAK

>  <Saltdate>
Free Base

>  <Smiles>
OC1=CC=C(NC2=C3C=C(OC)C(OC)=CC3=NC=N2)C=C1Br

>  <Solvent>
DMSO Solution

>  <Batch No.>
12043

>  <Quantity>
10mM  * 50uL

>  <Pathway>
Apoptosis; Epigenetics; JAK/STAT Signaling; Protein Tyrosine Kinase/RTK; Stem Cell/Wnt

>  <Synonyms>


>  <Formula>
C16H14BrN3O3

>  <Research_Area>
Cancer

>  <Clinical_Information>
No Development Reported

>  <SUPPLIER>
MedChemExpress

$$$$
Untitled Document
  ChemDraw10091812462D

 34 38  0  0  0  0  0  0  0  0999 V2000
    0.0631   -1.5098    0.0000 N   0  0  0  0  0  0  0  0  0  0  0  0
    0.5480   -0.8424    0.0000 C   0  0  0  0  0  0  0  0  0  0  0  0
    1.3326   -1.0973    0.0000 C   0  0  0  0  0  0  0  0  0  0  0  0
    1.3326   -1.9223    0.0000 C   0  0  0  0  0  0  0  0  0  0  0  0
    0.5480   -2.1773    0.0000 C   0  0  0  0  0  0  0  0  0  0  0  0
    2.0001   -0.6124    0.0000 C   0  0  0  0  0  0  0  0  0  0  0  0
    1.9138    0.2081    0.0000 O   0  0  0  0  0  0  0  0  0  0  0  0
    2.7538   -0.9480    0.0000 O   0  0  0  0  0  0  0  0  0  0  0  0
    0.2931   -2.9619    0.0000 O   0  0  0  0  0  0  0  0  0  0  0  0
   -1.2468   -0.8424    0.0000 S   0  0  0  0  0  0  0  0  0  0  0  0
   -0.7619   -1.5098    0.0000 C   0  0  0  0  0  0  0  0  0  0  0  0
   -1.2468   -2.1773    0.0000 N   0  0  0  0  0  0  0  0  0  0  0  0
   -2.0315   -1.9223    0.0000 C   0  0  0  0  0  0  0  0  0  0  0  0
   -2.0315   -1.0973    0.0000 C   0  0  0  0  0  0  0  0  0  0  0  0
   -2.7459   -2.3348    0.0000 C   0  0  0  0  0  0  0  0  0  0  0  0
   -3.4604   -1.9223    0.0000 C   0  0  0  0  0  0  0  0  0  0  0  0
   -3.4604   -1.0973    0.0000 C   0  0  0  0  0  0  0  0  0  0  0  0
   -2.7459   -0.6848    0.0000 C   0  0  0  0  0  0  0  0  0  0  0  0
   -4.1749   -0.6848    0.0000 C   0  0  0  0  0  0  0  0  0  0  0  0
    2.0001   -2.4072    0.0000 O   0  0  0  0  0  0  0  0  0  0  0  0
   -0.4915    0.1972    0.0000 O   0  0  0  0  0  0  0  0  0  0  0  0
    0.2931   -0.0578    0.0000 C   0  0  0  0  0  0  0  0  0  0  0  0
    0.7780    0.6097    0.0000 C   0  0  0  0  0  0  0  0  0  0  0  0
    0.2931    1.2771    0.0000 C   0  0  0  0  0  0  0  0  0  0  0  0
   -0.4915    1.0222    0.0000 C   0  0  0  0  0  0  0  0  0  0  0  0
   -1.1590    1.5071    0.0000 C   0  0  0  0  0  0  0  0  0  0  0  0
   -1.9127    1.1715    0.0000 C   0  0  0  0  0  0  0  0  0  0  0  0
   -2.5801    1.6565    0.0000 C   0  0  0  0  0  0  0  0  0  0  0  0
   -2.4939    2.4770    0.0000 C   0  0  0  0  0  0  0  0  0  0  0  0
   -1.7402    2.8125    0.0000 C   0  0  0  0  0  0  0  0  0  0  0  0
   -1.0727    2.3276    0.0000 C   0  0  0  0  0  0  0  0  0  0  0  0
   -3.1613    2.9619    0.0000 Cl  0  0  0  0  0  0  0  0  0  0  0  0
    3.4212   -0.4630    0.0000 C   0  0  0  0  0  0  0  0  0  0  0  0
    4.1749   -0.7986    0.0000 C   0  0  0  0  0  0  0  0  0  0  0  0
  1  2  1  0      
  2  3  1  0      
  3  4  2  0      
  4  5  1  0      
  1  5  1  0      
  6  7  2  0      
  6  8  1  0      
  3  6  1  0      
  5  9  2  0      
 10 11  1  0      
 11 12  2  0      
 12 13  1  0      
 13 14  1  0      
 10 14  1  0      
 15 16  1  0      
 16 17  2  0      
 17 18  1  0      
 14 18  2  0      
 13 15  2  0      
 17 19  1  0      
  1 11  1  0      
  4 20  1  0      
 21 22  1  0      
 22 23  2  0      
 23 24  1  0      
 24 25  2  0      
 21 25  1  0      
 26 27  1  0      
 27 28  2  0      
 28 29  1  0      
 29 30  2  0      
 30 31  1  0      
 26 31  2  0      
 29 32  1  0      
 25 26  1  0      
  2 22  1  0      
 33 34  1  0      
  8 33  1  0      
M  END

>  <RackCode>
HYCPK72335

>  <Cat. No.>
HY-117366

>  <Product Name>
PS432

>  <ROW>
N

>  <COLUMN>
20

>  <CAS No.>
2083630-26-4

>  <MWt>
494.95

>  <Target>
PKC

>  <Saltdate>


>  <Smiles>
O=C(C1=C(O)C(N(C2=NC3=CC=C(C)C=C3S2)C1C4=CC=C(C5=CC=C(Cl)C=C5)O4)=O)OCC

>  <Solvent>
DMSO Solution

>  <Batch No.>
329389

>  <Quantity>
10mM  * 50uL

>  <Pathway>
Epigenetics; TGF-beta/Smad

>  <Synonyms>


>  <Formula>
C25H19ClN2O5S

>  <Research_Area>
Cancer

>  <Clinical_Information>
No Development Reported

>  <SUPPLIER>
MedChemExpress

$$$$
Untitled Document
  ChemDraw08242416452D

 76 82  0  0  0  0  0  0  0  0999 V2000
    9.8344    1.9206    0.0000 C   0  0  0  0  0  0  0  0  0  0  0  0
    9.0376    1.7072    0.0000 C   0  0  0  0  0  0  0  0  0  0  0  0
    8.4542    2.2905    0.0000 C   0  0  0  0  0  0  0  0  0  0  0  0
    8.6677    3.0874    0.0000 C   0  0  0  0  0  0  0  0  0  0  0  0
    9.4647    3.3010    0.0000 C   0  0  0  0  0  0  0  0  0  0  0  0
   10.0480    2.7176    0.0000 C   0  0  0  0  0  0  0  0  0  0  0  0
    8.0843    3.6709    0.0000 C   0  0  0  0  0  0  0  0  0  0  0  0
    8.2134    4.4857    0.0000 C   0  0  0  0  0  0  0  0  0  0  0  0
    7.4783    4.8602    0.0000 N   0  0  0  0  0  0  0  0  0  0  0  0
    6.8949    4.2769    0.0000 C   0  0  0  0  0  0  0  0  0  0  0  0
    7.2695    3.5417    0.0000 S   0  0  0  0  0  0  0  0  0  0  0  0
    8.9279    4.8982    0.0000 C   0  0  0  0  0  0  0  0  0  0  0  0
   10.4179    1.3373    0.0000 C   0  0  0  0  0  0  0  0  0  0  0  0
   10.2043    0.5404    0.0000 N   0  0  0  0  0  0  0  0  0  0  0  0
   10.7877   -0.0431    0.0000 C   0  0  0  0  0  0  0  0  0  0  0  0
   11.5723    0.2119    0.0000 O   0  0  0  0  0  0  0  0  0  0  0  0
   10.6162   -0.8500    0.0000 C   0  0  0  0  0  0  0  0  0  0  0  0
   11.1682   -1.4631    0.0000 C   0  0  0  0  0  0  0  0  0  0  0  0
   10.7557   -2.1776    0.0000 C   0  0  0  0  0  0  0  0  0  0  0  0
    9.9487   -2.0061    0.0000 C   0  0  0  0  0  0  0  0  0  0  0  0
    9.8624   -1.1856    0.0000 N   0  0  0  0  0  0  0  0  0  0  0  0
   11.0913   -2.9313    0.0000 O   0  0  0  0  0  0  0  0  0  0  0  0
    9.1479   -0.7731    0.0000 C   0  0  0  0  0  0  0  0  0  0  0  0
    8.4334   -1.1856    0.0000 C   0  0  0  0  0  0  0  0  0  0  0  0
    9.1479    0.0520    0.0000 O   0  0  0  0  0  0  0  0  0  0  0  0
    7.7189   -0.7731    0.0000 N   0  0  0  0  0  0  0  0  0  0  0  0
    8.4334   -2.0106    0.0000 C   0  0  0  0  0  0  0  0  0  0  0  0
    9.1479   -2.4231    0.0000 C   0  0  0  0  0  0  0  0  0  0  0  0
    7.7189   -2.4231    0.0000 C   0  0  0  0  0  0  0  0  0  0  0  0
    8.4334   -2.8356    0.0000 C   0  0  0  0  0  0  0  0  0  0  0  0
    7.0045   -1.1856    0.0000 C   0  0  0  0  0  0  0  0  0  0  0  0
    6.2900   -0.7731    0.0000 C   0  0  0  0  0  0  0  0  0  0  0  0
    7.0045   -2.0106    0.0000 O   0  0  0  0  0  0  0  0  0  0  0  0
    5.5755   -1.1856    0.0000 O   0  0  0  0  0  0  0  0  0  0  0  0
    4.8610   -0.7731    0.0000 C   0  0  0  0  0  0  0  0  0  0  0  0
    4.1465   -1.1856    0.0000 C   0  0  0  0  0  0  0  0  0  0  0  0
    3.4320   -0.7731    0.0000 O   0  0  0  0  0  0  0  0  0  0  0  0
    2.7175   -1.1856    0.0000 C   0  0  0  0  0  0  0  0  0  0  0  0
    2.0030   -0.7731    0.0000 C   0  0  0  0  0  0  0  0  0  0  0  0
    1.2885   -1.1856    0.0000 O   0  0  0  0  0  0  0  0  0  0  0  0
    0.5740   -0.7731    0.0000 C   0  0  0  0  0  0  0  0  0  0  0  0
   -0.1405   -1.1856    0.0000 C   0  0  0  0  0  0  0  0  0  0  0  0
   -0.8549   -0.7731    0.0000 O   0  0  0  0  0  0  0  0  0  0  0  0
   -1.5694   -1.1856    0.0000 C   0  0  0  0  0  0  0  0  0  0  0  0
   -2.2839   -0.7731    0.0000 C   0  0  0  0  0  0  0  0  0  0  0  0
   -2.9984   -1.1856    0.0000 N   0  0  0  0  0  0  0  0  0  0  0  0
  -10.8578    0.0520    0.0000 C   0  0  0  0  0  0  0  0  0  0  0  0
  -10.1433    0.4644    0.0000 C   0  0  0  0  0  0  0  0  0  0  0  0
   -9.4288    0.0520    0.0000 C   0  0  0  0  0  0  0  0  0  0  0  0
   -9.4288   -0.7731    0.0000 C   0  0  0  0  0  0  0  0  0  0  0  0
  -10.1433   -1.1856    0.0000 C   0  0  0  0  0  0  0  0  0  0  0  0
  -10.8578   -0.7731    0.0000 C   0  0  0  0  0  0  0  0  0  0  0  0
   -8.7143   -1.1856    0.0000 N   0  0  0  0  0  0  0  0  0  0  0  0
   -8.7143   -2.0106    0.0000 C   0  0  0  0  0  0  0  0  0  0  0  0
   -9.4288   -2.4231    0.0000 C   0  0  0  0  0  0  0  0  0  0  0  0
   -9.4288   -3.2482    0.0000 C   0  0  0  0  0  0  0  0  0  0  0  0
   -8.7143   -3.6606    0.0000 N   0  0  0  0  0  0  0  0  0  0  0  0
   -7.9999   -3.2482    0.0000 C   0  0  0  0  0  0  0  0  0  0  0  0
   -7.9999   -2.4231    0.0000 C   0  0  0  0  0  0  0  0  0  0  0  0
   -7.2854   -3.6606    0.0000 C   0  0  0  0  0  0  0  0  0  0  0  0
   -6.5709   -3.2482    0.0000 C   0  0  0  0  0  0  0  0  0  0  0  0
   -6.5709   -2.4231    0.0000 C   0  0  0  0  0  0  0  0  0  0  0  0
   -7.2854   -2.0106    0.0000 C   0  0  0  0  0  0  0  0  0  0  0  0
   -5.8564   -2.0106    0.0000 C   0  0  0  0  0  0  0  0  0  0  0  0
   -5.8564   -1.1856    0.0000 C   0  0  0  0  0  0  0  0  0  0  0  0
   -5.1419   -0.7731    0.0000 C   0  0  0  0  0  0  0  0  0  0  0  0
   -4.4274   -1.1856    0.0000 C   0  0  0  0  0  0  0  0  0  0  0  0
   -4.4274   -2.0106    0.0000 C   0  0  0  0  0  0  0  0  0  0  0  0
   -5.1419   -2.4231    0.0000 C   0  0  0  0  0  0  0  0  0  0  0  0
   -3.7129   -0.7731    0.0000 C   0  0  0  0  0  0  0  0  0  0  0  0
   -3.7129    0.0520    0.0000 O   0  0  0  0  0  0  0  0  0  0  0  0
  -10.1433   -3.6606    0.0000 C   0  0  0  0  0  0  0  0  0  0  0  0
   -8.7143   -4.4857    0.0000 C   0  0  0  0  0  0  0  0  0  0  0  0
   -9.4288   -4.8982    0.0000 C   0  0  0  0  0  0  0  0  0  0  0  0
   -7.9999   -4.8982    0.0000 O   0  0  0  0  0  0  0  0  0  0  0  0
  -11.5723    0.4644    0.0000 Cl  0  0  0  0  0  0  0  0  0  0  0  0
  1  2  2  0      
  2  3  1  0      
  3  4  2  0      
  4  5  1  0      
  5  6  2  0      
  6  1  1  0      
  4  7  1  0      
  7  8  2  0      
  8  9  1  0      
  9 10  2  0      
 10 11  1  0      
 11  7  1  0      
  8 12  1  0      
  1 13  1  0      
 13 14  1  0      
 14 15  1  0      
 15 16  2  0      
 17 15  1  6      
 17 18  1  0      
 18 19  1  0      
 19 20  1  0      
 20 21  1  0      
 21 17  1  0      
 19 22  1  1      
 21 23  1  0      
 23 24  1  0      
 23 25  2  0      
 24 26  1  6      
 24 27  1  0      
 27 28  1  0      
 27 29  1  0      
 27 30  1  0      
 26 31  1  0      
 31 32  1  0      
 31 33  2  0      
 32 34  1  0      
 34 35  1  0      
 35 36  1  0      
 36 37  1  0      
 37 38  1  0      
 38 39  1  0      
 39 40  1  0      
 40 41  1  0      
 41 42  1  0      
 42 43  1  0      
 43 44  1  0      
 44 45  1  0      
 45 46  1  0      
 47 48  2  0      
 48 49  1  0      
 49 50  2  0      
 50 51  1  0      
 51 52  2  0      
 52 47  1  0      
 50 53  1  0      
 54 53  1  1      
 54 55  1  0      
 55 56  1  0      
 56 57  1  0      
 57 58  1  0      
 58 59  2  0      
 59 54  1  0      
 58 60  1  0      
 60 61  2  0      
 61 62  1  0      
 62 63  2  0      
 63 59  1  0      
 62 64  1  0      
 64 65  2  0      
 65 66  1  0      
 66 67  2  0      
 67 68  1  0      
 68 69  2  0      
 69 64  1  0      
 67 70  1  0      
 70 71  2  0      
 56 72  1  1      
 57 73  1  0      
 73 74  1  0      
 73 75  2  0      
 47 76  1  0      
 70 46  1  0      
M  END

>  <RackCode>
HYCPK72335

>  <Cat. No.>
HY-112377

>  <Product Name>
MZP-55

>  <ROW>
O

>  <COLUMN>
20

>  <CAS No.>
2010159-48-3

>  <MWt>
1080.72

>  <Target>
Epigenetic Reader Domain; PROTACs

>  <Saltdate>
Free Base

>  <Smiles>
CC(N=CS1)=C1C2=CC=C(CNC([C@@H]3C[C@@H](O)CN3C([C@H](C(C)(C)C)NC(COCCOCCOCCOCCNC(C(C=C4)=CC=C4C5=CC6=C(C=C5)N(C(C)=O)[C@@H](C)C[C@H]6NC7=CC=C(Cl)C=C7)=O)=O)=O)=O)C=C2

>  <Solvent>
DMSO Solution

>  <Batch No.>
33818

>  <Quantity>
10mM  * 50uL

>  <Pathway>
Epigenetics; PROTAC

>  <Synonyms>


>  <Formula>
C57H70ClN7O10S

>  <Research_Area>
Cancer

>  <Clinical_Information>
No Development Reported

>  <SUPPLIER>
MedChemExpress

$$$$
Untitled Document
  ChemDraw04181917252D

 19 20  0  0  0  0  0  0  0  0999 V2000
   -2.1434    0.2062    0.0000 C   0  0  0  0  0  0  0  0  0  0  0  0
   -1.4289   -0.2062    0.0000 C   0  0  0  0  0  0  0  0  0  0  0  0
   -0.7145    0.2062    0.0000 C   0  0  0  0  0  0  0  0  0  0  0  0
    0.0000   -0.2062    0.0000 C   0  0  0  0  0  0  0  0  0  0  0  0
    0.0000   -1.0313    0.0000 C   0  0  0  0  0  0  0  0  0  0  0  0
   -0.7145   -1.4438    0.0000 C   0  0  0  0  0  0  0  0  0  0  0  0
   -1.4289   -1.0313    0.0000 C   0  0  0  0  0  0  0  0  0  0  0  0
   -2.1434    1.0313    0.0000 O   0  0  0  0  0  0  0  0  0  0  0  0
   -2.8579   -0.2062    0.0000 N   0  0  0  0  0  0  0  0  0  0  0  0
   -3.5724    0.2062    0.0000 O   0  0  0  0  0  0  0  0  0  0  0  0
    0.7145   -1.4438    0.0000 C   0  0  0  0  0  0  0  0  0  0  0  0
    0.7145    0.2062    0.0000 N   0  0  0  0  0  0  0  0  0  0  0  0
    1.4289   -0.2062    0.0000 C   0  0  0  0  0  0  0  0  0  0  0  0
    2.1434    0.2062    0.0000 C   0  0  0  0  0  0  0  0  0  0  0  0
    2.1434    1.0313    0.0000 C   0  0  0  0  0  0  0  0  0  0  0  0
    2.8579    1.4438    0.0000 C   0  0  0  0  0  0  0  0  0  0  0  0
    3.5724    1.0313    0.0000 C   0  0  0  0  0  0  0  0  0  0  0  0
    3.5724    0.2062    0.0000 C   0  0  0  0  0  0  0  0  0  0  0  0
    2.8579   -0.2062    0.0000 C   0  0  0  0  0  0  0  0  0  0  0  0
  1  2  1  0      
  2  3  1  0      
  3  4  2  0      
  4  5  1  0      
  5  6  2  0      
  6  7  1  0      
  2  7  2  0      
  1  8  2  0      
  9 10  1  0      
  1  9  1  0      
  5 11  1  0      
 13 14  1  0      
 14 15  1  0      
 15 16  2  0      
 16 17  1  0      
 17 18  2  0      
 18 19  1  0      
 14 19  2  0      
 12 13  1  0      
  4 12  1  0      
M  END

>  <RackCode>
HYCPK72335

>  <Cat. No.>
HY-111818

>  <Product Name>
TH34

>  <ROW>
P

>  <COLUMN>
20

>  <CAS No.>
2196203-96-8

>  <MWt>
256.30

>  <Target>
HDAC

>  <Saltdate>
Free Base

>  <Smiles>
O=C(NO)C1=CC=C(C)C(NCC2=CC=CC=C2)=C1

>  <Solvent>
DMSO Solution

>  <Batch No.>
41806

>  <Quantity>
10mM  * 50uL

>  <Pathway>
Cell Cycle/DNA Damage; Epigenetics

>  <Synonyms>


>  <Formula>
C15H16N2O2

>  <Research_Area>
Cancer

>  <Clinical_Information>
No Development Reported

>  <SUPPLIER>
MedChemExpress

$$$$
Untitled Document
  ChemDraw05072215082D

 36 39  0  0  0  0  0  0  0  0999 V2000
   -4.8972    0.4535    0.0000 N   0  0  0  0  0  0  0  0  0  0  0  0
   -4.1827    0.8660    0.0000 C   0  0  0  0  0  0  0  0  0  0  0  0
   -4.1827    1.6910    0.0000 C   0  0  0  0  0  0  0  0  0  0  0  0
   -3.4682    2.1035    0.0000 C   0  0  0  0  0  0  0  0  0  0  0  0
   -2.7538    1.6910    0.0000 C   0  0  0  0  0  0  0  0  0  0  0  0
   -2.7538    0.8660    0.0000 N   0  0  0  0  0  0  0  0  0  0  0  0
   -2.0393    0.4535    0.0000 C   0  0  0  0  0  0  0  0  0  0  0  0
   -1.3248    0.8660    0.0000 C   0  0  0  0  0  0  0  0  0  0  0  0
   -0.6103    0.4535    0.0000 C   0  0  0  0  0  0  0  0  0  0  0  0
    0.1041    0.8660    0.0000 C   0  0  0  0  0  0  0  0  0  0  0  0
    0.8888    0.6111    0.0000 N   0  0  0  0  0  0  0  0  0  0  0  0
    1.3737    1.2785    0.0000 C   0  0  0  0  0  0  0  0  0  0  0  0
    2.1987    1.2785    0.0000 C   0  0  0  0  0  0  0  0  0  0  0  0
    2.6836    0.6111    0.0000 C   0  0  0  0  0  0  0  0  0  0  0  0
    3.4682    0.8660    0.0000 C   0  0  0  0  0  0  0  0  0  0  0  0
    3.4682    1.6910    0.0000 C   0  0  0  0  0  0  0  0  0  0  0  0
    4.1827    2.1035    0.0000 C   0  0  0  0  0  0  0  0  0  0  0  0
    4.8972    1.6910    0.0000 C   0  0  0  0  0  0  0  0  0  0  0  0
    4.8972    0.8660    0.0000 C   0  0  0  0  0  0  0  0  0  0  0  0
    4.1827    0.4535    0.0000 C   0  0  0  0  0  0  0  0  0  0  0  0
    2.6836    1.9460    0.0000 N   0  0  0  0  0  0  0  0  0  0  0  0
    2.4287    2.7306    0.0000 C   0  0  0  0  0  0  0  0  0  0  0  0
    0.8888    1.9460    0.0000 N   0  0  0  0  0  0  0  0  0  0  0  0
    1.1437    2.7306    0.0000 C   0  0  0  0  0  0  0  0  0  0  0  0
    0.1041    1.6910    0.0000 C   0  0  0  0  0  0  0  0  0  0  0  0
   -0.6103    2.1035    0.0000 C   0  0  0  0  0  0  0  0  0  0  0  0
   -1.3248    1.6910    0.0000 C   0  0  0  0  0  0  0  0  0  0  0  0
   -2.0393   -0.3715    0.0000 O   0  0  0  0  0  0  0  0  0  0  0  0
   -3.4682    0.4535    0.0000 C   0  0  0  0  0  0  0  0  0  0  0  0
    1.1625   -1.9056    0.0000 O   0  0  0  0  0  0  0  0  0  0  0  0
    0.4480   -1.4931    0.0000 C   0  0  0  0  0  0  0  0  0  0  0  0
   -0.2665   -1.9056    0.0000 C   0  0  0  0  0  0  0  0  0  0  0  0
   -0.9810   -1.4931    0.0000 F   0  0  0  0  0  0  0  0  0  0  0  0
   -0.2665   -2.7306    0.0000 F   0  0  0  0  0  0  0  0  0  0  0  0
   -0.9810   -2.3181    0.0000 F   0  0  0  0  0  0  0  0  0  0  0  0
    0.4480   -0.6681    0.0000 O   0  0  0  0  0  0  0  0  0  0  0  0
  1  2  1  0      
  2  3  1  0      
  3  4  1  0      
  4  5  1  0      
  5  6  1  0      
  6  7  1  0      
  7  8  1  0      
  8  9  2  0      
  9 10  1  0      
 10 11  1  0      
 11 12  2  0      
 12 13  1  0      
 13 14  2  0      
 14 15  1  0      
 15 16  2  0      
 16 17  1  0      
 17 18  2  0      
 18 19  1  0      
 19 20  2  0      
 15 20  1  0      
 16 21  1  0      
 13 21  1  0      
 21 22  1  0      
 12 23  1  0      
 23 24  1  0      
 10 25  2  0      
 23 25  1  0      
 25 26  1  0      
 26 27  2  0      
  8 27  1  0      
  7 28  2  0      
  6 29  1  0      
  2 29  1  0      
 30 31  1  0      
 31 32  1  0      
 32 33  1  0      
 32 34  1  0      
 32 35  1  0      
 31 36  2  0      
M  END

>  <RackCode>
HYCPK72335

>  <Cat. No.>
HY-117777

>  <Product Name>
GSK121

>  <ROW>
A

>  <COLUMN>
21

>  <CAS No.>
1652591-80-4

>  <MWt>
501.50

>  <Target>
Protein Arginine Deiminase

>  <Saltdate>
Trifluoroacetate

>  <Smiles>
NC1CCCN(C1)C(C2=CC3=C(C=C2)N(C)C(C4=CC5=C(N4C)C=CC=C5)=N3)=O.OC(C(F)(F)F)=O

>  <Solvent>
DMSO Solution

>  <Batch No.>
275566

>  <Quantity>
10mM  * 50uL

>  <Pathway>
Epigenetics

>  <Synonyms>


>  <Formula>
C25H26F3N5O3

>  <Research_Area>
Cancer; Inflammation/Immunology; Cardiovascular Disease

>  <Clinical_Information>
No Development Reported

>  <SUPPLIER>
MedChemExpress

$$$$
Untitled Document
  ChemDraw01282308492D

 39 41  0  0  0  0  0  0  0  0999 V2000
   -0.9838    1.6293    0.0000 C   0  0  0  0  0  0  0  0  0  0  0  0
   -1.6983    2.0418    0.0000 C   0  0  0  0  0  0  0  0  0  0  0  0
   -2.4127    1.6293    0.0000 C   0  0  0  0  0  0  0  0  0  0  0  0
   -3.1271    2.0418    0.0000 O   0  0  0  0  0  0  0  0  0  0  0  0
   -3.8416    1.6293    0.0000 C   0  0  0  0  0  0  0  0  0  0  0  0
   -3.8416    0.8043    0.0000 C   0  0  0  0  0  0  0  0  0  0  0  0
   -4.5561    0.3918    0.0000 C   0  0  0  0  0  0  0  0  0  0  0  0
   -4.5561   -0.4332    0.0000 C   0  0  0  0  0  0  0  0  0  0  0  0
   -3.8416   -0.8457    0.0000 C   0  0  0  0  0  0  0  0  0  0  0  0
   -3.1271   -0.4332    0.0000 C   0  0  0  0  0  0  0  0  0  0  0  0
   -3.1271    0.3918    0.0000 C   0  0  0  0  0  0  0  0  0  0  0  0
   -2.4127    0.8043    0.0000 O   0  0  0  0  0  0  0  0  0  0  0  0
   -1.6983    0.3918    0.0000 C   0  0  0  0  0  0  0  0  0  0  0  0
   -2.4127   -0.8457    0.0000 C   0  0  0  0  0  0  0  0  0  0  0  0
   -2.3265   -1.6662    0.0000 C   0  0  0  0  0  0  0  0  0  0  0  0
   -1.5195   -1.8377    0.0000 S   0  0  0  0  0  0  0  0  0  0  0  0
   -1.1070   -1.1232    0.0000 C   0  0  0  0  0  0  0  0  0  0  0  0
   -1.6591   -0.5101    0.0000 N   0  0  0  0  0  0  0  0  0  0  0  0
   -0.2865   -1.0370    0.0000 N   0  0  0  0  0  0  0  0  0  0  0  0
    0.1984   -1.7044    0.0000 C   0  0  0  0  0  0  0  0  0  0  0  0
   -0.1372   -2.4581    0.0000 O   0  0  0  0  0  0  0  0  0  0  0  0
    1.0189   -1.6182    0.0000 C   0  0  0  0  0  0  0  0  0  0  0  0
    1.3544   -0.8645    0.0000 C   0  0  0  0  0  0  0  0  0  0  0  0
    2.1749   -0.7783    0.0000 C   0  0  0  0  0  0  0  0  0  0  0  0
    2.6598   -1.4457    0.0000 C   0  0  0  0  0  0  0  0  0  0  0  0
    2.3243   -2.1994    0.0000 C   0  0  0  0  0  0  0  0  0  0  0  0
    1.5038   -2.2856    0.0000 C   0  0  0  0  0  0  0  0  0  0  0  0
    2.8091   -2.8667    0.0000 Cl  0  0  0  0  0  0  0  0  0  0  0  0
    3.4802   -1.3595    0.0000 C   0  0  0  0  0  0  0  0  0  0  0  0
    3.9651   -2.0269    0.0000 C   0  0  0  0  0  0  0  0  0  0  0  0
    3.6296   -2.7805    0.0000 C   0  0  0  0  0  0  0  0  0  0  0  0
    4.7856   -1.9407    0.0000 C   0  0  0  0  0  0  0  0  0  0  0  0
    5.1212   -1.1870    0.0000 O   0  0  0  0  0  0  0  0  0  0  0  0
    5.2705   -2.6081    0.0000 O   0  0  0  0  0  0  0  0  0  0  0  0
    2.5104   -0.0246    0.0000 Cl  0  0  0  0  0  0  0  0  0  0  0  0
   -4.5561    2.0418    0.0000 C   0  0  0  0  0  0  0  0  0  0  0  0
   -4.5561    2.8667    0.0000 C   0  0  0  0  0  0  0  0  0  0  0  0
   -5.2705    2.4543    0.0000 C   0  0  0  0  0  0  0  0  0  0  0  0
   -5.2705    1.6293    0.0000 C   0  0  0  0  0  0  0  0  0  0  0  0
  1  2  1  0      
  2  3  1  0      
  3  4  1  0      
  4  5  1  0      
  5  6  1  0      
  6  7  2  0      
  7  8  1  0      
  8  9  2  0      
  9 10  1  0      
 10 11  2  0      
  6 11  1  0      
 11 12  1  0      
 12 13  1  0      
 10 14  1  0      
 14 15  2  0      
 15 16  1  0      
 16 17  1  0      
 17 18  2  0      
 14 18  1  0      
 17 19  1  0      
 19 20  1  0      
 20 21  2  0      
 20 22  1  0      
 22 23  2  0      
 23 24  1  0      
 24 25  2  0      
 25 26  1  0      
 26 27  2  0      
 22 27  1  0      
 26 28  1  0      
 25 29  1  0      
 29 30  2  0      
 30 31  1  0      
 30 32  1  0      
 32 33  2  0      
 32 34  1  0      
 24 35  1  0      
  5 36  1  0      
 36 37  1  0      
 36 38  1  0      
 36 39  1  0      
M  END

>  <RackCode>
HYCPK72335

>  <Cat. No.>
HY-148748

>  <Product Name>
Butyzamide

>  <ROW>
B

>  <COLUMN>
21

>  <CAS No.>
1110767-45-7

>  <MWt>
591.55

>  <Target>
JAK; p38 MAPK; STAT

>  <Saltdate>


>  <Smiles>
CCCOC(C(C)(C)C)C1=CC=CC(C2=CSC(NC(C3=CC(Cl)=C(/C=C(C(O)=O)\C)C(Cl)=C3)=O)=N2)=C1OC

>  <Solvent>
DMSO Solution

>  <Batch No.>
273008

>  <Quantity>
10mM  * 50uL

>  <Pathway>
Epigenetics; JAK/STAT Signaling; MAPK/ERK Pathway; Protein Tyrosine Kinase/RTK; Stem Cell/Wnt

>  <Synonyms>


>  <Formula>
C29H32Cl2N2O5S

>  <Research_Area>
Others

>  <Clinical_Information>
No Development Reported

>  <SUPPLIER>
MedChemExpress

$$$$
Untitled Document
  ChemDraw08151212352D

 13 14  0  0  0  0  0  0  0  0999 V2000
   -2.0172    0.5384    0.0000 C   0  0  0  0  0  0  0  0  0  0  0  0
   -2.0172   -0.4079    0.0000 C   0  0  0  0  0  0  0  0  0  0  0  0
   -1.1977   -0.8811    0.0000 C   0  0  0  0  0  0  0  0  0  0  0  0
   -0.3782   -0.4079    0.0000 C   0  0  0  0  0  0  0  0  0  0  0  0
   -0.3782    0.5384    0.0000 C   0  0  0  0  0  0  0  0  0  0  0  0
   -1.1977    1.0115    0.0000 C   0  0  0  0  0  0  0  0  0  0  0  0
    0.4413   -0.8811    0.0000 N   0  0  0  0  0  0  0  0  0  0  0  0
    1.2608   -0.4079    0.0000 C   0  0  0  0  0  0  0  0  0  0  0  0
    1.2608    0.5384    0.0000 N   0  0  0  0  0  0  0  0  0  0  0  0
    0.4413    1.0115    0.0000 C   0  0  0  0  0  0  0  0  0  0  0  0
   -1.1977   -1.8291    0.0000 O   0  0  0  0  0  0  0  0  0  0  0  0
    0.4413    1.8291    0.0000 O   0  0  0  0  0  0  0  0  0  0  0  0
    2.0172   -0.8447    0.0000 C   0  0  0  0  0  0  0  0  0  0  0  0
  1  2  2  0      
  2  3  1  0      
  3  4  2  0      
  4  5  1  0      
  5  6  2  0      
  6  1  1  0      
  4  7  1  0      
  7  8  2  0      
  8  9  1  0      
  9 10  1  0      
 10  5  1  0      
  3 11  1  0      
 10 12  2  0      
  8 13  1  0      
M  END

>  <RackCode>
HYCPK72335

>  <Cat. No.>
HY-15044

>  <Product Name>
NU1025

>  <ROW>
C

>  <COLUMN>
21

>  <CAS No.>
90417-38-2

>  <MWt>
176.17

>  <Target>
PARP

>  <Saltdate>


>  <Smiles>
OC1=C(N=C(C)NC2=O)C2=CC=C1

>  <Solvent>
DMSO Solution

>  <Batch No.>
309411

>  <Quantity>
10mM  * 50uL

>  <Pathway>
Cell Cycle/DNA Damage; Epigenetics

>  <Synonyms>


>  <Formula>
C9H8N2O2

>  <Research_Area>
Cancer; Neurological Disease

>  <Clinical_Information>
No Development Reported

>  <SUPPLIER>
MedChemExpress

$$$$
Untitled Document
  ChemDraw12161616412D

 19 20  0  0  0  0  0  0  0  0999 V2000
   -1.4289   -0.0553    0.0000 C   0  0  0  0  0  0  0  0  0  0  0  0
   -2.1434   -0.4678    0.0000 C   0  0  0  0  0  0  0  0  0  0  0  0
   -2.8580   -0.0553    0.0000 C   0  0  0  0  0  0  0  0  0  0  0  0
   -2.8580    0.7698    0.0000 C   0  0  0  0  0  0  0  0  0  0  0  0
   -2.1434    1.1822    0.0000 C   0  0  0  0  0  0  0  0  0  0  0  0
   -1.4289    0.7698    0.0000 C   0  0  0  0  0  0  0  0  0  0  0  0
   -0.7145   -0.4678    0.0000 S   0  0  0  0  0  0  0  0  0  0  0  0
   -0.3020    0.2467    0.0000 O   0  0  0  0  0  0  0  0  0  0  0  0
   -1.1269   -1.1822    0.0000 O   0  0  0  0  0  0  0  0  0  0  0  0
   -0.0000   -0.8802    0.0000 N   0  0  0  0  0  0  0  0  0  0  0  0
    0.7145   -0.4678    0.0000 C   0  0  0  0  0  0  0  0  0  0  0  0
    1.4289   -0.8802    0.0000 C   0  0  0  0  0  0  0  0  0  0  0  0
    2.1434   -0.4678    0.0000 C   0  0  0  0  0  0  0  0  0  0  0  0
    2.1434    0.3573    0.0000 C   0  0  0  0  0  0  0  0  0  0  0  0
    2.8580    0.7698    0.0000 C   0  0  0  0  0  0  0  0  0  0  0  0
    3.5724    0.3573    0.0000 C   0  0  0  0  0  0  0  0  0  0  0  0
    3.5724   -0.4678    0.0000 C   0  0  0  0  0  0  0  0  0  0  0  0
    2.8580   -0.8802    0.0000 C   0  0  0  0  0  0  0  0  0  0  0  0
   -3.5724    1.1822    0.0000 N   0  0  0  0  0  0  0  0  0  0  0  0
  1  2  1  0      
  2  3  2  0      
  3  4  1  0      
  4  5  2  0      
  5  6  1  0      
  1  6  2  0      
  7  8  2  0      
  7  9  2  0      
  7 10  1  0      
  1  7  1  0      
 11 12  1  0      
 13 14  1  0      
 14 15  2  0      
 15 16  1  0      
 16 17  2  0      
 17 18  1  0      
 13 18  2  0      
 12 13  1  0      
 10 11  1  0      
  4 19  1  0      
M  END

>  <RackCode>
HYCPK72335

>  <Cat. No.>
HY-15890

>  <Product Name>
C-7280948

>  <ROW>
D

>  <COLUMN>
21

>  <CAS No.>
587850-67-7

>  <MWt>
276.35

>  <Target>
Histone Methyltransferase

>  <Saltdate>
Free Base

>  <Smiles>
O=S(C1=CC=C(N)C=C1)(NCCC2=CC=CC=C2)=O

>  <Solvent>
DMSO Solution

>  <Batch No.>
17243

>  <Quantity>
10mM  * 50uL

>  <Pathway>
Epigenetics

>  <Synonyms>


>  <Formula>
C14H16N2O2S

>  <Research_Area>
Cancer

>  <Clinical_Information>
No Development Reported

>  <SUPPLIER>
MedChemExpress

$$$$
Untitled Document
  ChemDraw05192314152D

 27 30  0  0  0  0  0  0  0  0999 V2000
    2.9552    2.2538    0.0000 C   0  0  0  0  0  0  0  0  0  0  0  0
    2.2408    1.8413    0.0000 C   0  0  0  0  0  0  0  0  0  0  0  0
    2.2408    1.0163    0.0000 C   0  0  0  0  0  0  0  0  0  0  0  0
    1.5263    0.6038    0.0000 C   0  0  0  0  0  0  0  0  0  0  0  0
    0.8119    1.0163    0.0000 C   0  0  0  0  0  0  0  0  0  0  0  0
    0.8119    1.8413    0.0000 C   0  0  0  0  0  0  0  0  0  0  0  0
    1.5263    2.2538    0.0000 C   0  0  0  0  0  0  0  0  0  0  0  0
    2.9552    3.0787    0.0000 O   0  0  0  0  0  0  0  0  0  0  0  0
    3.6697    1.8413    0.0000 O   0  0  0  0  0  0  0  0  0  0  0  0
    0.0974    0.6038    0.0000 N   0  0  0  0  0  0  0  0  0  0  0  0
   -0.6563    0.9394    0.0000 N   0  0  0  0  0  0  0  0  0  0  0  0
   -1.2083    0.3263    0.0000 C   0  0  0  0  0  0  0  0  0  0  0  0
   -0.7958   -0.3882    0.0000 C   0  0  0  0  0  0  0  0  0  0  0  0
    0.0112   -0.2166    0.0000 C   0  0  0  0  0  0  0  0  0  0  0  0
   -2.0288    0.4125    0.0000 C   0  0  0  0  0  0  0  0  0  0  0  0
   -2.5137   -0.2549    0.0000 C   0  0  0  0  0  0  0  0  0  0  0  0
   -3.3341   -0.1687    0.0000 C   0  0  0  0  0  0  0  0  0  0  0  0
   -3.6697    0.5850    0.0000 C   0  0  0  0  0  0  0  0  0  0  0  0
   -3.1847    1.2524    0.0000 C   0  0  0  0  0  0  0  0  0  0  0  0
   -2.3643    1.1662    0.0000 C   0  0  0  0  0  0  0  0  0  0  0  0
    0.6243   -0.7687    0.0000 O   0  0  0  0  0  0  0  0  0  0  0  0
   -1.1314   -1.1419    0.0000 C   0  0  0  0  0  0  0  0  0  0  0  0
   -0.9014   -2.5939    0.0000 N   0  0  0  0  0  0  0  0  0  0  0  0
   -0.6464   -1.8093    0.0000 C   0  0  0  0  0  0  0  0  0  0  0  0
    0.1786   -1.8093    0.0000 C   0  0  0  0  0  0  0  0  0  0  0  0
    0.4335   -2.5939    0.0000 C   0  0  0  0  0  0  0  0  0  0  0  0
   -0.2339   -3.0787    0.0000 C   0  0  0  0  0  0  0  0  0  0  0  0
  1  2  1  0      
  2  3  1  0      
  3  4  2  0      
  4  5  1  0      
  5  6  2  0      
  6  7  1  0      
  2  7  2  0      
  1  8  2  0      
  1  9  1  0      
 10 11  1  0      
 11 12  2  0      
 12 13  1  0      
 13 14  1  0      
 10 14  1  0      
 15 16  1  0      
 16 17  2  0      
 17 18  1  0      
 18 19  2  0      
 19 20  1  0      
 15 20  2  0      
 12 15  1  0      
 14 21  2  0      
 23 24  1  0      
 24 25  2  0      
 25 26  1  0      
 26 27  2  0      
 23 27  1  0      
 22 24  1  0      
 13 22  2  0      
  5 10  1  0      
M  END

>  <RackCode>
HYCPK72335

>  <Cat. No.>
HY-153604

>  <Product Name>
MC4171

>  <ROW>
E

>  <COLUMN>
21

>  <CAS No.>


>  <MWt>
357.36

>  <Target>
Histone Acetyltransferase

>  <Saltdate>


>  <Smiles>
O=C(O)C1=CC=C(N2N=C(C3=CC=CC=C3)/C(C2=O)=C/C4=CC=CN4)C=C1

>  <Solvent>
DMSO Solution

>  <Batch No.>
383159

>  <Quantity>
10mM  * 50uL

>  <Pathway>
Epigenetics

>  <Synonyms>


>  <Formula>
C21H15N3O3

>  <Research_Area>
Cancer

>  <Clinical_Information>
No Development Reported

>  <SUPPLIER>
MedChemExpress

$$$$
Untitled Document
  ChemDraw08041710512D

 25 25  0  0  0  0  0  0  0  0999 V2000
    6.4302   -0.8250    0.0000 C   0  0  0  0  0  0  0  0  0  0  0  0
    6.4302    0.0000    0.0000 C   0  0  0  0  0  0  0  0  0  0  0  0
    5.7158    0.4125    0.0000 C   0  0  0  0  0  0  0  0  0  0  0  0
    5.0013    0.0000    0.0000 C   0  0  0  0  0  0  0  0  0  0  0  0
    5.0013   -0.8250    0.0000 C   0  0  0  0  0  0  0  0  0  0  0  0
    5.7158   -1.2375    0.0000 C   0  0  0  0  0  0  0  0  0  0  0  0
    7.1447   -1.2375    0.0000 O   0  0  0  0  0  0  0  0  0  0  0  0
    5.7158    1.2375    0.0000 O   0  0  0  0  0  0  0  0  0  0  0  0
    4.2868   -1.2375    0.0000 C   0  0  0  0  0  0  0  0  0  0  0  0
    3.5724   -0.8250    0.0000 C   0  0  0  0  0  0  0  0  0  0  0  0
    2.8579   -1.2375    0.0000 C   0  0  0  0  0  0  0  0  0  0  0  0
    2.1434   -0.8250    0.0000 C   0  0  0  0  0  0  0  0  0  0  0  0
    1.4289   -1.2375    0.0000 C   0  0  0  0  0  0  0  0  0  0  0  0
    0.7145   -0.8250    0.0000 C   0  0  0  0  0  0  0  0  0  0  0  0
   -0.0000   -1.2375    0.0000 C   0  0  0  0  0  0  0  0  0  0  0  0
   -0.7145   -0.8250    0.0000 C   0  0  0  0  0  0  0  0  0  0  0  0
   -1.4289   -1.2375    0.0000 C   0  0  0  0  0  0  0  0  0  0  0  0
   -2.1434   -0.8250    0.0000 C   0  0  0  0  0  0  0  0  0  0  0  0
   -2.8579   -1.2375    0.0000 C   0  0  0  0  0  0  0  0  0  0  0  0
   -3.5724   -0.8250    0.0000 C   0  0  0  0  0  0  0  0  0  0  0  0
   -4.2868   -1.2375    0.0000 C   0  0  0  0  0  0  0  0  0  0  0  0
   -5.0013   -0.8250    0.0000 C   0  0  0  0  0  0  0  0  0  0  0  0
   -5.7158   -1.2375    0.0000 C   0  0  0  0  0  0  0  0  0  0  0  0
   -6.4302   -0.8250    0.0000 C   0  0  0  0  0  0  0  0  0  0  0  0
   -7.1447   -1.2375    0.0000 C   0  0  0  0  0  0  0  0  0  0  0  0
  1  2  1  0      
  2  3  2  0      
  3  4  1  0      
  4  5  2  0      
  5  6  1  0      
  1  6  2  0      
  1  7  1  0      
  3  8  1  0      
  9 10  1  0      
 10 11  1  0      
 11 12  1  0      
 12 13  1  0      
 13 14  1  0      
 14 15  1  0      
 15 16  1  0      
 16 17  1  0      
 17 18  1  0      
 18 19  1  0      
 19 20  1  0      
 20 21  1  0      
 21 22  1  0      
 22 23  1  0      
 23 24  1  0      
 24 25  1  0      
  5  9  1  0      
M  END

>  <RackCode>
HYCPK72335

>  <Cat. No.>
HY-N2673

>  <Product Name>
5-Heptadecylresorcinol

>  <ROW>
F

>  <COLUMN>
21

>  <CAS No.>
41442-57-3

>  <MWt>
348.56

>  <Target>
Sirtuin

>  <Saltdate>


>  <Smiles>
OC1=CC(CCCCCCCCCCCCCCCCC)=CC(O)=C1

>  <Solvent>
DMSO Solution

>  <Batch No.>
417348

>  <Quantity>
10mM  * 50uL

>  <Pathway>
Cell Cycle/DNA Damage; Epigenetics

>  <Synonyms>
5-n-Heptadecylresorcinol; AR-C17

>  <Formula>
C23H40O2

>  <Research_Area>
Metabolic Disease; Cardiovascular Disease

>  <Clinical_Information>
No Development Reported

>  <SUPPLIER>
MedChemExpress

$$$$
Untitled Document
  ChemDraw05182313162D

 29 32  0  0  0  0  0  0  0  0999 V2000
    0.3572    0.8250    0.0000 O   0  0  0  0  0  0  0  0  0  0  0  0
    0.3572    1.6500    0.0000 C   0  0  0  0  0  0  0  0  0  0  0  0
    1.0717    2.0625    0.0000 N   0  0  0  0  0  0  0  0  0  0  0  0
    1.7862    1.6500    0.0000 C   0  0  0  0  0  0  0  0  0  0  0  0
    2.5006    2.0625    0.0000 C   0  0  0  0  0  0  0  0  0  0  0  0
    3.2151    1.6500    0.0000 C   0  0  0  0  0  0  0  0  0  0  0  0
    3.2151    0.8250    0.0000 C   0  0  0  0  0  0  0  0  0  0  0  0
    3.9296    0.4125    0.0000 Cl  0  0  0  0  0  0  0  0  0  0  0  0
    2.5006    0.4125    0.0000 C   0  0  0  0  0  0  0  0  0  0  0  0
    1.7862    0.8250    0.0000 C   0  0  0  0  0  0  0  0  0  0  0  0
   -0.3572    2.0625    0.0000 C   0  0  0  0  0  0  0  0  0  0  0  0
   -1.0717    1.6500    0.0000 N   0  0  0  0  0  0  0  0  0  0  0  0
   -1.0717    0.8250    0.0000 N   0  0  0  0  0  0  0  0  0  0  0  0
   -1.7862    0.4125    0.0000 C   0  0  0  0  0  0  0  0  0  0  0  0
   -1.7862   -0.4125    0.0000 C   0  0  0  0  0  0  0  0  0  0  0  0
   -1.0717   -0.8250    0.0000 C   0  0  0  0  0  0  0  0  0  0  0  0
   -1.0717   -1.6500    0.0000 C   0  0  0  0  0  0  0  0  0  0  0  0
   -1.7862   -2.0625    0.0000 C   0  0  0  0  0  0  0  0  0  0  0  0
   -1.7862   -2.8875    0.0000 Cl  0  0  0  0  0  0  0  0  0  0  0  0
   -2.5006   -1.6500    0.0000 C   0  0  0  0  0  0  0  0  0  0  0  0
   -2.5006   -0.8250    0.0000 C   0  0  0  0  0  0  0  0  0  0  0  0
   -2.5006    0.8250    0.0000 C   0  0  0  0  0  0  0  0  0  0  0  0
   -3.2151    0.4125    0.0000 C   0  0  0  0  0  0  0  0  0  0  0  0
   -3.9296    0.8250    0.0000 C   0  0  0  0  0  0  0  0  0  0  0  0
   -3.9296    1.6500    0.0000 C   0  0  0  0  0  0  0  0  0  0  0  0
   -3.2151    2.0625    0.0000 C   0  0  0  0  0  0  0  0  0  0  0  0
   -2.5006    1.6500    0.0000 C   0  0  0  0  0  0  0  0  0  0  0  0
   -1.7862    2.0625    0.0000 C   0  0  0  0  0  0  0  0  0  0  0  0
   -1.7862    2.8875    0.0000 O   0  0  0  0  0  0  0  0  0  0  0  0
  1  2  2  0      
  2  3  1  0      
  3  4  1  0      
  4  5  2  0      
  5  6  1  0      
  6  7  2  0      
  7  8  1  0      
  7  9  1  0      
  9 10  2  0      
  4 10  1  0      
  2 11  1  0      
 11 12  1  0      
 12 13  1  0      
 13 14  2  0      
 14 15  1  0      
 15 16  1  0      
 16 17  2  0      
 17 18  1  0      
 18 19  1  0      
 18 20  2  0      
 20 21  1  0      
 15 21  2  0      
 14 22  1  0      
 22 23  1  0      
 23 24  2  0      
 24 25  1  0      
 25 26  2  0      
 26 27  1  0      
 22 27  2  0      
 27 28  1  0      
 12 28  1  0      
 28 29  2  0      
M  END

>  <RackCode>
HYCPK72335

>  <Cat. No.>
HY-153590

>  <Product Name>
PARP-1-IN-4

>  <ROW>
G

>  <COLUMN>
21

>  <CAS No.>
684234-56-8

>  <MWt>
424.28

>  <Target>
PARP

>  <Saltdate>


>  <Smiles>
O=C(CN1N=C(C2=C(C1=O)C=CC=C2)C3=CC=C(Cl)C=C3)NC4=CC=C(C=C4)Cl

>  <Solvent>
DMSO Solution

>  <Batch No.>
307154

>  <Quantity>
10mM  * 50uL

>  <Pathway>
Cell Cycle/DNA Damage; Epigenetics

>  <Synonyms>


>  <Formula>
C22H15Cl2N3O2

>  <Research_Area>
Cancer

>  <Clinical_Information>
No Development Reported

>  <SUPPLIER>
MedChemExpress

$$$$
Untitled Document
  ChemDraw03041909572D

 28 30  0  0  0  0  0  0  0  0999 V2000
    0.7145   -1.2375    0.0000 N   0  0  0  0  0  0  0  0  0  0  0  0
    0.0000   -1.6500    0.0000 C   0  0  0  0  0  0  0  0  0  0  0  0
   -0.7145   -1.2375    0.0000 C   0  0  0  0  0  0  0  0  0  0  0  0
   -0.7145   -0.4125    0.0000 C   0  0  0  0  0  0  0  0  0  0  0  0
    0.0000    0.0000    0.0000 C   0  0  0  0  0  0  0  0  0  0  0  0
    0.7145   -0.4125    0.0000 C   0  0  0  0  0  0  0  0  0  0  0  0
    1.4289   -1.6500    0.0000 C   0  0  0  0  0  0  0  0  0  0  0  0
    1.4289   -2.4750    0.0000 O   0  0  0  0  0  0  0  0  0  0  0  0
    2.1434   -1.2375    0.0000 O   0  0  0  0  0  0  0  0  0  0  0  0
   -1.4289    0.0000    0.0000 O   0  0  0  0  0  0  0  0  0  0  0  0
    0.0000    0.8250    0.0000 C   0  0  0  0  0  0  0  0  0  0  0  0
   -0.7145    1.2375    0.0000 C   0  0  0  0  0  0  0  0  0  0  0  0
   -0.7145    2.0625    0.0000 C   0  0  0  0  0  0  0  0  0  0  0  0
   -1.4289    2.4750    0.0000 C   0  0  0  0  0  0  0  0  0  0  0  0
   -2.1434    2.0625    0.0000 C   0  0  0  0  0  0  0  0  0  0  0  0
   -2.1434    1.2375    0.0000 C   0  0  0  0  0  0  0  0  0  0  0  0
   -1.4289    0.8250    0.0000 C   0  0  0  0  0  0  0  0  0  0  0  0
    0.0000    2.4750    0.0000 F   0  0  0  0  0  0  0  0  0  0  0  0
   -1.4289   -1.6500    0.0000 C   0  0  0  0  0  0  0  0  0  0  0  0
   -2.1434   -1.2375    0.0000 C   0  0  0  0  0  0  0  0  0  0  0  0
   -2.8579   -1.6500    0.0000 C   0  0  0  0  0  0  0  0  0  0  0  0
   -3.5724   -1.2375    0.0000 C   0  0  0  0  0  0  0  0  0  0  0  0
   -3.5724   -0.4125    0.0000 C   0  0  0  0  0  0  0  0  0  0  0  0
   -2.8579    0.0000    0.0000 C   0  0  0  0  0  0  0  0  0  0  0  0
   -2.1434   -0.4125    0.0000 C   0  0  0  0  0  0  0  0  0  0  0  0
   -2.8579   -2.4750    0.0000 F   0  0  0  0  0  0  0  0  0  0  0  0
    2.8579   -1.6500    0.0000 C   0  0  0  0  0  0  0  0  0  0  0  0
    3.5724   -1.2375    0.0000 C   0  0  0  0  0  0  0  0  0  0  0  0
  1  2  1  0      
  2  3  1  0      
  3  4  1  0      
  4  5  1  0      
  5  6  1  0      
  1  6  1  0      
  7  8  2  0      
  7  9  1  0      
  1  7  1  0      
  4 10  2  0      
 12 13  1  0      
 13 14  2  0      
 14 15  1  0      
 15 16  2  0      
 16 17  1  0      
 12 17  2  0      
 13 18  1  0      
 11 12  1  0      
  5 11  2  0      
 20 21  1  0      
 21 22  2  0      
 22 23  1  0      
 23 24  2  0      
 24 25  1  0      
 20 25  2  0      
 21 26  1  0      
 19 20  1  0      
  3 19  2  0      
 27 28  1  0      
  9 27  1  0      
M  END

>  <RackCode>
HYCPK72335

>  <Cat. No.>
HY-115452

>  <Product Name>
G5-7

>  <ROW>
H

>  <COLUMN>
21

>  <CAS No.>
939681-36-4

>  <MWt>
383.39

>  <Target>
Apoptosis; JAK

>  <Saltdate>


>  <Smiles>
O=C(N1C/C(C(/C(C1)=C\C2=CC=CC=C2F)=O)=C/C3=CC=CC=C3F)OCC

>  <Solvent>
DMSO Solution

>  <Batch No.>
87472

>  <Quantity>
10mM  * 50uL

>  <Pathway>
Apoptosis; Epigenetics; JAK/STAT Signaling; Protein Tyrosine Kinase/RTK; Stem Cell/Wnt

>  <Synonyms>


>  <Formula>
C22H19F2NO3

>  <Research_Area>
Cancer

>  <Clinical_Information>
No Development Reported

>  <SUPPLIER>
MedChemExpress

$$$$
Untitled Document
  ChemDraw08192210062D

 31 34  0  0  0  0  0  0  0  0999 V2000
   -0.8154    2.7733    0.0000 C   0  0  0  0  0  0  0  0  0  0  0  0
   -0.1009    3.1858    0.0000 N   0  0  0  0  0  0  0  0  0  0  0  0
    0.6136    2.7733    0.0000 C   0  0  0  0  0  0  0  0  0  0  0  0
    0.6136    1.9483    0.0000 C   0  0  0  0  0  0  0  0  0  0  0  0
   -0.1009    1.5358    0.0000 C   0  0  0  0  0  0  0  0  0  0  0  0
   -0.8154    1.9483    0.0000 N   0  0  0  0  0  0  0  0  0  0  0  0
    1.3982    3.0283    0.0000 O   0  0  0  0  0  0  0  0  0  0  0  0
    1.3982    1.6934    0.0000 C   0  0  0  0  0  0  0  0  0  0  0  0
    1.8831    2.3608    0.0000 C   0  0  0  0  0  0  0  0  0  0  0  0
    1.6531    0.9088    0.0000 C   0  0  0  0  0  0  0  0  0  0  0  0
    1.1011    0.2957    0.0000 O   0  0  0  0  0  0  0  0  0  0  0  0
    2.4601    0.7373    0.0000 N   0  0  0  0  0  0  0  0  0  0  0  0
   -1.5298    1.5358    0.0000 C   0  0  0  0  0  0  0  0  0  0  0  0
   -2.2443    1.9483    0.0000 C   0  0  0  0  0  0  0  0  0  0  0  0
   -2.9588    1.5358    0.0000 N   0  0  0  0  0  0  0  0  0  0  0  0
   -3.0450    0.7154    0.0000 C   0  0  0  0  0  0  0  0  0  0  0  0
   -3.8520    0.5438    0.0000 C   0  0  0  0  0  0  0  0  0  0  0  0
   -4.2645    1.2583    0.0000 C   0  0  0  0  0  0  0  0  0  0  0  0
   -3.7125    1.8714    0.0000 C   0  0  0  0  0  0  0  0  0  0  0  0
   -0.1009    0.7108    0.0000 O   0  0  0  0  0  0  0  0  0  0  0  0
    2.7081    2.3608    0.0000 C   0  0  0  0  0  0  0  0  0  0  0  0
    2.1630   -0.6605    0.0000 C   0  0  0  0  0  0  0  0  0  0  0  0
    2.7150   -0.0474    0.0000 C   0  0  0  0  0  0  0  0  0  0  0  0
    3.5220   -0.2189    0.0000 C   0  0  0  0  0  0  0  0  0  0  0  0
    3.7770   -1.0035    0.0000 C   0  0  0  0  0  0  0  0  0  0  0  0
    3.2249   -1.6166    0.0000 C   0  0  0  0  0  0  0  0  0  0  0  0
    2.4180   -1.4451    0.0000 N   0  0  0  0  0  0  0  0  0  0  0  0
    3.4799   -2.4012    0.0000 S   0  0  0  0  0  0  0  0  0  0  0  0
    2.6952   -2.6562    0.0000 O   0  0  0  0  0  0  0  0  0  0  0  0
    4.2645   -2.1463    0.0000 O   0  0  0  0  0  0  0  0  0  0  0  0
    3.7348   -3.1858    0.0000 N   0  0  0  0  0  0  0  0  0  0  0  0
  1  2  2  0      
  2  3  1  0      
  3  4  2  0      
  4  5  1  0      
  5  6  1  0      
  1  6  1  0      
  8  9  2  0      
  7  9  1  0      
  7  3  1  0      
  8  4  1  0      
 10 11  2  0      
 10 12  1  0      
  8 10  1  0      
 13 14  1  0      
 15 16  1  0      
 16 17  1  0      
 17 18  1  0      
 18 19  1  0      
 15 19  1  0      
 14 15  1  0      
  6 13  1  0      
  5 20  2  0      
  9 21  1  0      
 22 23  1  0      
 23 24  2  0      
 24 25  1  0      
 25 26  2  0      
 26 27  1  0      
 22 27  2  0      
 28 29  2  0      
 28 30  2  0      
 28 31  1  0      
 26 28  1  0      
 12 23  1  0      
M  END

>  <RackCode>
HYCPK72335

>  <Cat. No.>
HY-151136

>  <Product Name>
DY-46-2

>  <ROW>
I

>  <COLUMN>
21

>  <CAS No.>
1105110-83-5

>  <MWt>
446.48

>  <Target>
DNA Methyltransferase

>  <Saltdate>


>  <Smiles>
O=C(C1=C(C)OC(N=CN2CCN3CCCC3)=C1C2=O)NC4=CC=C(S(=O)(N)=O)N=C4

>  <Solvent>
DMSO Solution

>  <Batch No.>
266659

>  <Quantity>
10mM  * 50uL

>  <Pathway>
Epigenetics

>  <Synonyms>


>  <Formula>
C19H22N6O5S

>  <Research_Area>
Cancer

>  <Clinical_Information>
No Development Reported

>  <SUPPLIER>
MedChemExpress

$$$$
Untitled Document
  ChemDraw01141713162D

 26 28  0  0  0  0  0  0  0  0999 V2000
   -1.4289    0.0000    0.0000 C   0  0  0  0  0  0  0  0  0  0  0  0
   -1.4289   -0.8250    0.0000 C   0  0  0  0  0  0  0  0  0  0  0  0
   -0.7145   -1.2375    0.0000 C   0  0  0  0  0  0  0  0  0  0  0  0
   -0.0000   -0.8250    0.0000 C   0  0  0  0  0  0  0  0  0  0  0  0
   -0.0000    0.0000    0.0000 C   0  0  0  0  0  0  0  0  0  0  0  0
   -0.7145    0.4125    0.0000 C   0  0  0  0  0  0  0  0  0  0  0  0
   -2.1433    0.4125    0.0000 O   0  0  0  0  0  0  0  0  0  0  0  0
   -2.1433   -1.2375    0.0000 C   0  0  0  0  0  0  0  0  0  0  0  0
   -2.1433   -2.0624    0.0000 N   0  0  0  0  0  0  0  0  0  0  0  0
   -2.8578   -2.4749    0.0000 C   0  0  0  0  0  0  0  0  0  0  0  0
   -1.4289   -2.4749    0.0000 C   0  0  0  0  0  0  0  0  0  0  0  0
   -2.8578    0.0000    0.0000 C   0  0  0  0  0  0  0  0  0  0  0  0
   -0.7145   -2.0624    0.0000 O   0  0  0  0  0  0  0  0  0  0  0  0
   -0.0000   -2.4749    0.0000 C   0  0  0  0  0  0  0  0  0  0  0  0
    0.7145    0.4125    0.0000 C   0  0  0  0  0  0  0  0  0  0  0  0
    1.4289    0.0000    0.0000 C   0  0  0  0  0  0  0  0  0  0  0  0
    2.1433    0.4125    0.0000 C   0  0  0  0  0  0  0  0  0  0  0  0
    2.1433    1.2375    0.0000 C   0  0  0  0  0  0  0  0  0  0  0  0
    1.4289    1.6500    0.0000 N   0  0  0  0  0  0  0  0  0  0  0  0
    0.7145    1.2375    0.0000 C   0  0  0  0  0  0  0  0  0  0  0  0
    1.4289   -0.8250    0.0000 C   0  0  0  0  0  0  0  0  0  0  0  0
    2.1433   -1.2375    0.0000 C   0  0  0  0  0  0  0  0  0  0  0  0
    2.8578   -0.8250    0.0000 N   0  0  0  0  0  0  0  0  0  0  0  0
    2.8578    0.0000    0.0000 C   0  0  0  0  0  0  0  0  0  0  0  0
    1.4289    2.4749    0.0000 C   0  0  0  0  0  0  0  0  0  0  0  0
    2.8578    1.6500    0.0000 O   0  0  0  0  0  0  0  0  0  0  0  0
  1  2  2  0      
  2  3  1  0      
  3  4  2  0      
  4  5  1  0      
  5  6  2  0      
  6  1  1  0      
  1  7  1  0      
  2  8  1  0      
  8  9  1  0      
  9 10  1  0      
  9 11  1  0      
  7 12  1  0      
  3 13  1  0      
 13 14  1  0      
  5 15  1  0      
 15 16  1  0      
 16 17  2  0      
 17 18  1  0      
 18 19  1  0      
 19 20  1  0      
 20 15  2  0      
 16 21  1  0      
 21 22  2  0      
 22 23  1  0      
 23 24  2  0      
 24 17  1  0      
 19 25  1  0      
 18 26  2  0      
M  END

>  <RackCode>
HYCPK72335

>  <Cat. No.>
HY-100351

>  <Product Name>
BI-7273

>  <ROW>
J

>  <COLUMN>
21

>  <CAS No.>
1883429-21-7

>  <MWt>
353.41

>  <Target>
Epigenetic Reader Domain

>  <Saltdate>
Free Base

>  <Smiles>
CN(C)CC1=C(OC)C=C(C(C2=C3C=NC=C2)=CN(C)C3=O)C=C1OC

>  <Solvent>
DMSO Solution

>  <Batch No.>
59025

>  <Quantity>
10mM  * 50uL

>  <Pathway>
Epigenetics

>  <Synonyms>


>  <Formula>
C20H23N3O3

>  <Research_Area>
Cancer

>  <Clinical_Information>
No Development Reported

>  <SUPPLIER>
MedChemExpress

$$$$
Untitled Document
  ChemDraw08201809002D

 23 25  0  0  0  0  0  0  0  0999 V2000
   -2.8554    0.6195    0.0000 N   0  0  0  0  0  0  0  0  0  0  0  0
   -2.8554   -0.2055    0.0000 N   0  0  0  0  0  0  0  0  0  0  0  0
   -2.1409   -0.6180    0.0000 C   0  0  0  0  0  0  0  0  0  0  0  0
   -1.4265   -0.2055    0.0000 C   0  0  0  0  0  0  0  0  0  0  0  0
   -1.4265    0.6195    0.0000 C   0  0  0  0  0  0  0  0  0  0  0  0
   -2.1409    1.0320    0.0000 C   0  0  0  0  0  0  0  0  0  0  0  0
   -0.7145    1.0305    0.0000 Br  0  0  0  0  0  0  0  0  0  0  0  0
   -0.7145   -0.6166    0.0000 N   0  0  0  0  0  0  0  0  0  0  0  0
   -0.0025   -0.2055    0.0000 C   0  0  0  0  0  0  0  0  0  0  0  0
    0.7120   -0.6180    0.0000 C   0  0  0  0  0  0  0  0  0  0  0  0
    1.4265   -0.2055    0.0000 C   0  0  0  0  0  0  0  0  0  0  0  0
    1.4265    0.6195    0.0000 C   0  0  0  0  0  0  0  0  0  0  0  0
    0.7120    1.0320    0.0000 N   0  0  0  0  0  0  0  0  0  0  0  0
   -0.0025    0.6195    0.0000 C   0  0  0  0  0  0  0  0  0  0  0  0
    0.7120    1.8541    0.0000 C   0  0  0  0  0  0  0  0  0  0  0  0
    2.1385   -0.6166    0.0000 C   0  0  0  0  0  0  0  0  0  0  0  0
    2.1385   -1.4416    0.0000 C   0  0  0  0  0  0  0  0  0  0  0  0
    2.8529   -1.8541    0.0000 C   0  0  0  0  0  0  0  0  0  0  0  0
    3.5674   -1.4416    0.0000 C   0  0  0  0  0  0  0  0  0  0  0  0
    3.5674   -0.6166    0.0000 C   0  0  0  0  0  0  0  0  0  0  0  0
    2.8529   -0.2041    0.0000 C   0  0  0  0  0  0  0  0  0  0  0  0
   -2.1409    1.8541    0.0000 O   0  0  0  0  0  0  0  0  0  0  0  0
   -3.5674    1.0305    0.0000 C   0  0  0  0  0  0  0  0  0  0  0  0
  1  2  1  0      
  2  3  2  0      
  3  4  1  0      
  4  5  2  0      
  5  6  1  0      
  6  1  1  0      
  5  7  1  0      
  4  8  1  0      
  9 10  1  0      
 10 11  1  0      
 11 12  1  0      
 12 13  1  0      
 13 14  1  0      
 14  9  1  0      
 13 15  1  0      
 16 17  2  0      
 17 18  1  0      
 18 19  2  0      
 19 20  1  0      
 20 21  2  0      
 21 16  1  0      
  6 22  2  0      
  1 23  1  0      
  9  8  1  6      
 11 16  1  6      
M  END

>  <RackCode>
HYCPK72335

>  <Cat. No.>
HY-101027A

>  <Product Name>
GSK4028

>  <ROW>
K

>  <COLUMN>
21

>  <CAS No.>
2079886-19-2

>  <MWt>
377.28

>  <Target>
Epigenetic Reader Domain; Histone Acetyltransferase

>  <Saltdate>
Free Base

>  <Smiles>
BrC1=C(N[C@H]2C[C@@H](C3=CC=CC=C3)CN(C)C2)C=NN(C)C1=O

>  <Solvent>
DMSO Solution

>  <Batch No.>
34019

>  <Quantity>
10mM  * 50uL

>  <Pathway>
Epigenetics

>  <Synonyms>


>  <Formula>
C17H21BrN4O

>  <Research_Area>
Cancer; Inflammation/Immunology

>  <Clinical_Information>
No Development Reported

>  <SUPPLIER>
MedChemExpress

$$$$
Untitled Document
  ChemDraw06111909102D

 26 29  0  0  0  0  0  0  0  0999 V2000
   -3.8214    0.1081    0.0000 C   0  0  0  0  0  0  0  0  0  0  0  0
   -3.8214   -0.7169    0.0000 C   0  0  0  0  0  0  0  0  0  0  0  0
   -3.1069   -1.1294    0.0000 C   0  0  0  0  0  0  0  0  0  0  0  0
   -2.3924   -0.7169    0.0000 C   0  0  0  0  0  0  0  0  0  0  0  0
   -2.3924    0.1081    0.0000 C   0  0  0  0  0  0  0  0  0  0  0  0
   -3.1069    0.5206    0.0000 C   0  0  0  0  0  0  0  0  0  0  0  0
   -3.1069    1.3427    0.0000 C   0  0  0  0  0  0  0  0  0  0  0  0
   -3.8189    1.7538    0.0000 O   0  0  0  0  0  0  0  0  0  0  0  0
   -2.3949    1.7538    0.0000 N   0  0  0  0  0  0  0  0  0  0  0  0
   -1.6078   -0.9719    0.0000 C   0  0  0  0  0  0  0  0  0  0  0  0
   -1.1229   -0.3044    0.0000 N   0  0  0  0  0  0  0  0  0  0  0  0
   -1.6078    0.3630    0.0000 C   0  0  0  0  0  0  0  0  0  0  0  0
   -1.3538    1.1449    0.0000 O   0  0  0  0  0  0  0  0  0  0  0  0
   -0.3008   -0.3044    0.0000 C   0  0  0  0  0  0  0  0  0  0  0  0
   -1.3538   -1.7538    0.0000 C   0  0  0  0  0  0  0  0  0  0  0  0
    0.1117   -1.0189    0.0000 C   0  0  0  0  0  0  0  0  0  0  0  0
    0.9367   -1.0189    0.0000 C   0  0  0  0  0  0  0  0  0  0  0  0
    1.3492   -0.3044    0.0000 N   0  0  0  0  0  0  0  0  0  0  0  0
    0.9367    0.4100    0.0000 C   0  0  0  0  0  0  0  0  0  0  0  0
    0.1117    0.4100    0.0000 C   0  0  0  0  0  0  0  0  0  0  0  0
    2.1714   -0.3044    0.0000 C   0  0  0  0  0  0  0  0  0  0  0  0
    2.5839   -1.0189    0.0000 C   0  0  0  0  0  0  0  0  0  0  0  0
    3.4089   -1.0189    0.0000 C   0  0  0  0  0  0  0  0  0  0  0  0
    3.8214   -0.3044    0.0000 C   0  0  0  0  0  0  0  0  0  0  0  0
    3.4089    0.4100    0.0000 C   0  0  0  0  0  0  0  0  0  0  0  0
    2.5839    0.4100    0.0000 C   0  0  0  0  0  0  0  0  0  0  0  0
  1  2  2  0      
  2  3  1  0      
  3  4  2  0      
  4  5  1  0      
  5  6  2  0      
  6  1  1  0      
  6  7  1  0      
  7  8  2  0      
  7  9  1  0      
  4 10  1  0      
 10 11  1  0      
 11 12  1  0      
 12  5  1  0      
 12 13  2  0      
 11 14  1  0      
 10 15  1  1      
 14 16  1  0      
 16 17  1  0      
 17 18  1  0      
 18 19  1  0      
 19 20  1  0      
 20 14  1  0      
 18 21  1  0      
 21 22  1  0      
 22 23  1  0      
 23 24  1  0      
 24 25  1  0      
 25 26  1  0      
 26 21  1  0      
M  END

>  <RackCode>
HYCPK72335

>  <Cat. No.>
HY-128599

>  <Product Name>
NMS-P515

>  <ROW>
L

>  <COLUMN>
21

>  <CAS No.>
1262395-13-0

>  <MWt>
355.47

>  <Target>
PARP

>  <Saltdate>
Free Base

>  <Smiles>
O=C(N)C1=C2C([C@H](C)N(C3CCN(C4CCCCC4)CC3)C2=O)=CC=C1

>  <Solvent>
DMSO Solution

>  <Batch No.>
266657

>  <Quantity>
10mM  * 50uL

>  <Pathway>
Cell Cycle/DNA Damage; Epigenetics

>  <Synonyms>


>  <Formula>
C21H29N3O2

>  <Research_Area>
Cancer

>  <Clinical_Information>
No Development Reported

>  <SUPPLIER>
MedChemExpress

$$$$
Untitled Document
  ChemDraw12131914002D

 44 46  0  0  0  0  0  0  0  0999 V2000
    3.2813   -0.7144    0.0000 C   0  0  0  0  0  0  0  0  0  0  0  0
    3.2813   -1.5394    0.0000 C   0  0  0  0  0  0  0  0  0  0  0  0
    3.9958   -1.9519    0.0000 C   0  0  0  0  0  0  0  0  0  0  0  0
    2.5669   -1.9519    0.0000 C   0  0  0  0  0  0  0  0  0  0  0  0
    1.8524   -1.5394    0.0000 C   0  0  0  0  0  0  0  0  0  0  0  0
    1.1379   -1.9519    0.0000 C   0  0  0  0  0  0  0  0  0  0  0  0
    1.1379   -2.7769    0.0000 C   0  0  0  0  0  0  0  0  0  0  0  0
    1.8524   -3.1894    0.0000 C   0  0  0  0  0  0  0  0  0  0  0  0
    0.4234   -3.1894    0.0000 C   0  0  0  0  0  0  0  0  0  0  0  0
    0.4234   -1.5394    0.0000 C   0  0  0  0  0  0  0  0  0  0  0  0
    0.4234   -0.7144    0.0000 C   0  0  0  0  0  0  0  0  0  0  0  0
    0.8427   -0.0039    0.0000 C   0  0  0  0  0  0  0  0  0  0  0  0
    0.4371    0.7144    0.0000 C   0  0  0  0  0  0  0  0  0  0  0  0
   -0.3879    0.7223    0.0000 C   0  0  0  0  0  0  0  0  0  0  0  0
   -0.8072    0.0118    0.0000 C   0  0  0  0  0  0  0  0  0  0  0  0
   -1.6322    0.0118    0.0000 C   0  0  0  0  0  0  0  0  0  0  0  0
   -2.0447   -0.7027    0.0000 C   0  0  0  0  0  0  0  0  0  0  0  0
   -2.8697   -0.7027    0.0000 C   0  0  0  0  0  0  0  0  0  0  0  0
   -3.2822   -1.4172    0.0000 C   0  0  0  0  0  0  0  0  0  0  0  0
   -4.1072   -1.4172    0.0000 O   0  0  0  0  0  0  0  0  0  0  0  0
   -2.8697   -2.1316    0.0000 C   0  0  0  0  0  0  0  0  0  0  0  0
   -3.2822   -2.8461    0.0000 O   0  0  0  0  0  0  0  0  0  0  0  0
   -2.0447   -2.1316    0.0000 C   0  0  0  0  0  0  0  0  0  0  0  0
   -1.6322   -1.4172    0.0000 C   0  0  0  0  0  0  0  0  0  0  0  0
   -2.0447    0.7263    0.0000 O   0  0  0  0  0  0  0  0  0  0  0  0
   -0.4015   -0.7066    0.0000 C   0  0  0  0  0  0  0  0  0  0  0  0
   -0.8140   -1.4210    0.0000 O   0  0  0  0  0  0  0  0  0  0  0  0
   -0.8004    1.4368    0.0000 O   0  0  0  0  0  0  0  0  0  0  0  0
    1.2411    0.6915    0.0000 C   0  0  0  0  0  0  0  0  0  0  0  0
    1.2411    1.5165    0.0000 C   0  0  0  0  0  0  0  0  0  0  0  0
    1.9556    1.1040    0.0000 C   0  0  0  0  0  0  0  0  0  0  0  0
    1.6322   -0.0114    0.0000 C   0  0  0  0  0  0  0  0  0  0  0  0
    2.4572   -0.0114    0.0000 C   0  0  0  0  0  0  0  0  0  0  0  0
    2.8697    0.7030    0.0000 C   0  0  0  0  0  0  0  0  0  0  0  0
    3.6947    0.7030    0.0000 C   0  0  0  0  0  0  0  0  0  0  0  0
    4.1072   -0.0114    0.0000 C   0  0  0  0  0  0  0  0  0  0  0  0
    4.1072    1.4175    0.0000 C   0  0  0  0  0  0  0  0  0  0  0  0
    1.2278   -0.7068    0.0000 C   0  0  0  0  0  0  0  0  0  0  0  0
    0.4371    1.5394    0.0000 C   0  0  0  0  0  0  0  0  0  0  0  0
   -0.2774    1.9519    0.0000 C   0  0  0  0  0  0  0  0  0  0  0  0
   -0.2774    2.7769    0.0000 C   0  0  0  0  0  0  0  0  0  0  0  0
    0.4371    3.1894    0.0000 C   0  0  0  0  0  0  0  0  0  0  0  0
   -0.9919    3.1894    0.0000 C   0  0  0  0  0  0  0  0  0  0  0  0
    1.6552    0.1393    0.0000 O   0  0  0  0  0  0  0  0  0  0  0  0
  1  2  1  0      
  2  3  1  0      
  2  4  2  0      
  4  5  1  0      
  5  6  1  0      
  6  7  1  6      
  7  8  1  0      
  7  9  2  0      
  6 10  1  0      
 10 11  1  0      
 11 12  1  1      
 13 12  1  1      
 13 14  1  0      
 14 15  1  0      
 15 16  1  0      
 16 17  1  0      
 17 18  2  0      
 18 19  1  0      
 19 20  1  0      
 19 21  2  0      
 21 22  1  0      
 21 23  1  0      
 23 24  2  0      
 17 24  1  0      
 16 25  2  0      
 15 26  2  0      
 11 26  1  0      
 26 27  1  0      
 14 28  2  0      
 13 29  1  0      
 29 30  1  0      
 29 31  1  0      
 29 32  1  0      
 32 33  1  6      
 33 34  1  0      
 34 35  2  0      
 35 36  1  0      
 35 37  1  0      
 32 38  1  0      
 11 38  1  0      
 13 39  1  0      
 39 40  1  0      
 40 41  2  0      
 41 42  1  0      
 41 43  1  0      
 12 44  2  0      
M  END

>  <RackCode>
HYCPK72335

>  <Cat. No.>
HY-107569

>  <Product Name>
Garcinol

>  <ROW>
M

>  <COLUMN>
21

>  <CAS No.>
78824-30-3

>  <MWt>
602.80

>  <Target>
Apoptosis; Cholinesterase (ChE); Endogenous Metabolite; Histone Acetyltransferase

>  <Saltdate>
Free Base

>  <Smiles>
C/C(C)=C\C[C@@H](C[C@]12C([C@](C(C)([C@@H](C2)C/C=C(C)\C)C)(C/C=C(C)\C)C(C(C(C3=CC(O)=C(C=C3)O)=O)=C1O)=O)=O)C(C)=C

>  <Solvent>
DMSO Solution

>  <Batch No.>
222114

>  <Quantity>
10mM  * 50uL

>  <Pathway>
Apoptosis; Epigenetics; Metabolic Enzyme/Protease; Neuronal Signaling

>  <Synonyms>


>  <Formula>
C38H50O6

>  <Research_Area>
Cancer; Inflammation/Immunology

>  <Clinical_Information>
No Development Reported

>  <SUPPLIER>
MedChemExpress

$$$$
Untitled Document
  ChemDraw06171617402D

 26 28  0  0  0  0  0  0  0  0999 V2000
   -0.8905   -0.0666    0.0000 C   0  0  0  0  0  0  0  0  0  0  0  0
   -0.8905   -0.8916    0.0000 C   0  0  0  0  0  0  0  0  0  0  0  0
   -0.1760   -1.3045    0.0000 C   0  0  0  0  0  0  0  0  0  0  0  0
    0.5385   -0.8916    0.0000 N   0  0  0  0  0  0  0  0  0  0  0  0
    0.5385   -0.0666    0.0000 C   0  0  0  0  0  0  0  0  0  0  0  0
   -0.1760    0.3459    0.0000 C   0  0  0  0  0  0  0  0  0  0  0  0
    1.3235   -1.1470    0.0000 C   0  0  0  0  0  0  0  0  0  0  0  0
    1.8084   -0.4791    0.0000 C   0  0  0  0  0  0  0  0  0  0  0  0
    1.3235    0.1883    0.0000 C   0  0  0  0  0  0  0  0  0  0  0  0
    1.5776   -1.9289    0.0000 C   0  0  0  0  0  0  0  0  0  0  0  0
    1.0274   -2.5398    0.0000 O   0  0  0  0  0  0  0  0  0  0  0  0
    2.3817   -2.0998    0.0000 C   0  0  0  0  0  0  0  0  0  0  0  0
   -1.6028    0.3444    0.0000 O   0  0  0  0  0  0  0  0  0  0  0  0
   -2.3148   -0.0666    0.0000 C   0  0  0  0  0  0  0  0  0  0  0  0
   -3.0272    0.3444    0.0000 C   0  0  0  0  0  0  0  0  0  0  0  0
   -3.7392   -0.0666    0.0000 C   0  0  0  0  0  0  0  0  0  0  0  0
    1.5776    0.9706    0.0000 C   0  0  0  0  0  0  0  0  0  0  0  0
    2.3845    1.1421    0.0000 C   0  0  0  0  0  0  0  0  0  0  0  0
    2.6395    1.9267    0.0000 C   0  0  0  0  0  0  0  0  0  0  0  0
    2.0874    2.5398    0.0000 C   0  0  0  0  0  0  0  0  0  0  0  0
    1.2805    2.3683    0.0000 C   0  0  0  0  0  0  0  0  0  0  0  0
    1.0255    1.5837    0.0000 C   0  0  0  0  0  0  0  0  0  0  0  0
    2.9351    0.5308    0.0000 S   0  0  0  0  0  0  0  0  0  0  0  0
    2.6806   -0.2511    0.0000 O   0  0  0  0  0  0  0  0  0  0  0  0
    3.7392    0.7017    0.0000 O   0  0  0  0  0  0  0  0  0  0  0  0
    3.1891    1.3131    0.0000 C   0  0  0  0  0  0  0  0  0  0  0  0
  1  2  1  0      
  2  3  2  0      
  3  4  1  0      
  4  5  1  0      
  5  6  1  0      
  6  1  2  0      
  4  7  1  0      
  7  8  2  0      
  8  9  1  0      
  9  5  2  0      
  7 10  1  0      
 10 11  2  0      
 10 12  1  0      
  1 13  1  0      
 13 14  1  0      
 14 15  1  0      
 15 16  1  0      
  9 17  1  0      
 17 18  2  0      
 18 19  1  0      
 19 20  2  0      
 20 21  1  0      
 21 22  2  0      
 22 17  1  0      
 18 23  1  0      
 23 24  2  0      
 23 25  2  0      
 23 26  1  0      
M  END

>  <RackCode>
HYCPK72335

>  <Cat. No.>
HY-15658

>  <Product Name>
GSK2801

>  <ROW>
N

>  <COLUMN>
21

>  <CAS No.>
1619994-68-1

>  <MWt>
371.45

>  <Target>
Apoptosis; Epigenetic Reader Domain

>  <Saltdate>
Free Base

>  <Smiles>
O=C(C)C1=CC(C2=C(S(=O)(C)=O)C=CC=C2)=C3N1C=CC(OCCC)=C3

>  <Solvent>
DMSO Solution

>  <Batch No.>
18350

>  <Quantity>
10mM  * 50uL

>  <Pathway>
Apoptosis; Epigenetics

>  <Synonyms>


>  <Formula>
C20H21NO4S

>  <Research_Area>
Cancer

>  <Clinical_Information>
No Development Reported

>  <SUPPLIER>
MedChemExpress

$$$$
Untitled Document
  ChemDraw07041314422D

 27 27  0  0  0  0  0  0  0  0999 V2000
   -1.7802    0.4111    0.0000 C   0  0  0  0  0  0  0  0  0  0  0  0
   -2.4922   -0.0000    0.0000 C   0  0  0  0  0  0  0  0  0  0  0  0
   -2.4922   -0.8222    0.0000 C   0  0  0  0  0  0  0  0  0  0  0  0
   -1.7802   -1.2333    0.0000 C   0  0  0  0  0  0  0  0  0  0  0  0
   -1.0681   -0.8222    0.0000 C   0  0  0  0  0  0  0  0  0  0  0  0
   -1.0681   -0.0000    0.0000 C   0  0  0  0  0  0  0  0  0  0  0  0
   -1.7802    1.2333    0.0000 C   0  0  0  0  0  0  0  0  0  0  0  0
   -3.2043    0.4111    0.0000 O   0  0  0  0  0  0  0  0  0  0  0  0
   -3.9164   -0.0000    0.0000 C   0  0  0  0  0  0  0  0  0  0  0  0
   -3.2043   -1.2333    0.0000 O   0  0  0  0  0  0  0  0  0  0  0  0
   -3.2043   -2.0556    0.0000 C   0  0  0  0  0  0  0  0  0  0  0  0
   -1.7802   -2.0556    0.0000 O   0  0  0  0  0  0  0  0  0  0  0  0
   -1.0681   -2.4667    0.0000 C   0  0  0  0  0  0  0  0  0  0  0  0
   -0.3560    0.4111    0.0000 C   0  0  0  0  0  0  0  0  0  0  0  0
    0.3560   -0.0000    0.0000 C   0  0  0  0  0  0  0  0  0  0  0  0
    1.0681    0.4111    0.0000 C   0  0  0  0  0  0  0  0  0  0  0  0
    1.7802    0.0000    0.0000 C   0  0  0  0  0  0  0  0  0  0  0  0
    2.4922    0.4111    0.0000 C   0  0  0  0  0  0  0  0  0  0  0  0
    3.2043    0.0000    0.0000 C   0  0  0  0  0  0  0  0  0  0  0  0
    3.9164    0.4111    0.0000 C   0  0  0  0  0  0  0  0  0  0  0  0
    4.6284    0.0000    0.0000 C   0  0  0  0  0  0  0  0  0  0  0  0
   -2.4922    1.6444    0.0000 C   0  0  0  0  0  0  0  0  0  0  0  0
   -3.2043    1.2333    0.0000 O   0  0  0  0  0  0  0  0  0  0  0  0
   -3.9164    1.6444    0.0000 C   0  0  0  0  0  0  0  0  0  0  0  0
   -4.6284    1.2333    0.0000 C   0  0  0  0  0  0  0  0  0  0  0  0
   -2.4922    2.4667    0.0000 O   0  0  0  0  0  0  0  0  0  0  0  0
   -0.3560    1.2333    0.0000 O   0  0  0  0  0  0  0  0  0  0  0  0
  1  2  2  0      
  2  3  1  0      
  3  4  2  0      
  4  5  1  0      
  5  6  2  0      
  6  1  1  0      
  1  7  1  0      
  2  8  1  0      
  8  9  1  0      
  3 10  1  0      
 10 11  1  0      
  4 12  1  0      
 12 13  1  0      
  6 14  1  0      
 14 15  1  0      
 15 16  1  0      
 16 17  1  0      
 17 18  1  0      
 18 19  1  0      
 19 20  1  0      
 20 21  1  0      
  7 22  1  0      
 22 23  1  0      
 23 24  1  0      
 24 25  1  0      
 22 26  2  0      
 14 27  2  0      
M  END

>  <RackCode>
HYCPK72335

>  <Cat. No.>
HY-18555

>  <Product Name>
TMPA

>  <ROW>
O

>  <COLUMN>
21

>  <CAS No.>
1258275-73-8

>  <MWt>
380.48

>  <Target>
AMPK; Nuclear Hormone Receptor 4A/NR4A

>  <Saltdate>
Free Base

>  <Smiles>
COC1=C(CC(OCC)=O)C(C(CCCCCCC)=O)=CC(OC)=C1OC

>  <Solvent>
DMSO Solution

>  <Batch No.>
26128

>  <Quantity>
10mM  * 50uL

>  <Pathway>
Epigenetics; PI3K/Akt/mTOR; Vitamin D Related/Nuclear Receptor

>  <Synonyms>


>  <Formula>
C21H32O6

>  <Research_Area>
Cancer; Metabolic Disease; Inflammation/Immunology

>  <Clinical_Information>
No Development Reported

>  <SUPPLIER>
MedChemExpress

$$$$
Untitled Document
  ChemDraw05031814002D

 30 32  0  0  0  0  0  0  0  0999 V2000
    0.7145    0.0000    0.0000 C   0  0  0  0  0  0  0  0  0  0  0  0
    0.7145   -0.8250    0.0000 C   0  0  0  0  0  0  0  0  0  0  0  0
    1.4289   -1.2375    0.0000 N   0  0  0  0  0  0  0  0  0  0  0  0
    2.1434   -0.8250    0.0000 C   0  0  0  0  0  0  0  0  0  0  0  0
    2.1434    0.0000    0.0000 C   0  0  0  0  0  0  0  0  0  0  0  0
    1.4289    0.4125    0.0000 C   0  0  0  0  0  0  0  0  0  0  0  0
    2.8579   -1.2375    0.0000 O   0  0  0  0  0  0  0  0  0  0  0  0
    0.0000    0.4125    0.0000 C   0  0  0  0  0  0  0  0  0  0  0  0
   -0.7145    0.0000    0.0000 N   0  0  0  0  0  0  0  0  0  0  0  0
    3.5724   -0.8250    0.0000 C   0  0  0  0  0  0  0  0  0  0  0  0
    4.2868   -1.2375    0.0000 C   0  0  0  0  0  0  0  0  0  0  0  0
    5.0013   -0.8250    0.0000 C   0  0  0  0  0  0  0  0  0  0  0  0
    5.0013    0.0000    0.0000 C   0  0  0  0  0  0  0  0  0  0  0  0
    4.2868    0.4125    0.0000 C   0  0  0  0  0  0  0  0  0  0  0  0
    3.5724    0.0000    0.0000 C   0  0  0  0  0  0  0  0  0  0  0  0
    5.7158    0.4125    0.0000 Cl  0  0  0  0  0  0  0  0  0  0  0  0
   -1.4289    0.4125    0.0000 C   0  0  0  0  0  0  0  0  0  0  0  0
   -2.1434    0.0000    0.0000 C   0  0  0  0  0  0  0  0  0  0  0  0
   -2.1434   -0.8250    0.0000 C   0  0  0  0  0  0  0  0  0  0  0  0
   -1.4289   -1.2375    0.0000 C   0  0  0  0  0  0  0  0  0  0  0  0
   -0.7145   -0.8250    0.0000 C   0  0  0  0  0  0  0  0  0  0  0  0
   -1.4289    1.2375    0.0000 O   0  0  0  0  0  0  0  0  0  0  0  0
   -2.8579   -1.2375    0.0000 O   0  0  0  0  0  0  0  0  0  0  0  0
   -2.8579    0.4125    0.0000 C   0  0  0  0  0  0  0  0  0  0  0  0
   -3.5724    0.0000    0.0000 N   0  0  0  0  0  0  0  0  0  0  0  0
   -2.8579    1.2375    0.0000 O   0  0  0  0  0  0  0  0  0  0  0  0
   -4.2868    0.4125    0.0000 C   0  0  0  0  0  0  0  0  0  0  0  0
   -5.0013    0.0000    0.0000 C   0  0  0  0  0  0  0  0  0  0  0  0
   -5.7158    0.4125    0.0000 O   0  0  0  0  0  0  0  0  0  0  0  0
   -5.0013   -0.8250    0.0000 O   0  0  0  0  0  0  0  0  0  0  0  0
  1  2  2  0      
  2  3  1  0      
  3  4  2  0      
  4  5  1  0      
  5  6  2  0      
  6  1  1  0      
  4  7  1  0      
  1  8  1  0      
  8  9  1  0      
  7 10  1  0      
 10 11  2  0      
 11 12  1  0      
 12 13  2  0      
 13 14  1  0      
 14 15  2  0      
 15 10  1  0      
 13 16  1  0      
  9 17  1  0      
 17 18  1  0      
 18 19  2  0      
 19 20  1  0      
 20 21  1  0      
 21  9  1  0      
 17 22  2  0      
 19 23  1  0      
 18 24  1  0      
 24 25  1  0      
 24 26  2  0      
 25 27  1  0      
 27 28  1  0      
 28 29  1  0      
 28 30  2  0      
M  END

>  <RackCode>
HYCPK72335

>  <Cat. No.>
HY-112144

>  <Product Name>
TP0463518

>  <ROW>
P

>  <COLUMN>
21

>  <CAS No.>
1558021-37-6

>  <MWt>
431.83

>  <Target>
HIF/HIF Prolyl-Hydroxylase

>  <Saltdate>
Free Acid

>  <Smiles>
ClC(C=C1)=CC=C1OC2=NC=C(CN3C(C(C(NCC(O)=O)=O)=C(O)CC3)=O)C=C2

>  <Solvent>
DMSO Solution

>  <Batch No.>
42392

>  <Quantity>
10mM  * 50uL

>  <Pathway>
Metabolic Enzyme/Protease

>  <Synonyms>


>  <Formula>
C20H18ClN3O6

>  <Research_Area>
Metabolic Disease

>  <Clinical_Information>
No Development Reported

>  <SUPPLIER>
MedChemExpress

$$$$
Untitled Document
  ChemDraw09291615582D

 30 33  0  0  0  0  0  0  0  0999 V2000
    0.2075   -1.6053    0.0000 C   0  0  0  0  0  0  0  0  0  0  0  0
   -0.2775   -2.2727    0.0000 N   0  0  0  0  0  0  0  0  0  0  0  0
   -1.0621   -2.0178    0.0000 C   0  0  0  0  0  0  0  0  0  0  0  0
   -1.0621   -1.1928    0.0000 C   0  0  0  0  0  0  0  0  0  0  0  0
   -0.2775   -0.9379    0.0000 N   0  0  0  0  0  0  0  0  0  0  0  0
   -1.7766   -2.4303    0.0000 C   0  0  0  0  0  0  0  0  0  0  0  0
   -2.4910   -2.0178    0.0000 C   0  0  0  0  0  0  0  0  0  0  0  0
   -2.4910   -1.1928    0.0000 C   0  0  0  0  0  0  0  0  0  0  0  0
   -1.7766   -0.7803    0.0000 C   0  0  0  0  0  0  0  0  0  0  0  0
   -3.2055   -2.4303    0.0000 C   0  0  0  0  0  0  0  0  0  0  0  0
   -3.2055   -3.2553    0.0000 O   0  0  0  0  0  0  0  0  0  0  0  0
   -3.9200   -2.0178    0.0000 O   0  0  0  0  0  0  0  0  0  0  0  0
   -0.0225   -0.1532    0.0000 C   0  0  0  0  0  0  0  0  0  0  0  0
   -0.5746    0.4599    0.0000 C   0  0  0  0  0  0  0  0  0  0  0  0
   -0.3196    1.2445    0.0000 C   0  0  0  0  0  0  0  0  0  0  0  0
   -0.8716    1.8576    0.0000 C   0  0  0  0  0  0  0  0  0  0  0  0
   -0.6167    2.6422    0.0000 C   0  0  0  0  0  0  0  0  0  0  0  0
   -1.1687    3.2553    0.0000 C   0  0  0  0  0  0  0  0  0  0  0  0
   -1.9757    3.0838    0.0000 C   0  0  0  0  0  0  0  0  0  0  0  0
   -2.2307    2.2991    0.0000 C   0  0  0  0  0  0  0  0  0  0  0  0
   -1.6786    1.6861    0.0000 C   0  0  0  0  0  0  0  0  0  0  0  0
    1.0325   -1.6053    0.0000 N   0  0  0  0  0  0  0  0  0  0  0  0
    1.4450   -0.8908    0.0000 C   0  0  0  0  0  0  0  0  0  0  0  0
    2.2700   -0.8908    0.0000 C   0  0  0  0  0  0  0  0  0  0  0  0
    2.6825   -0.1764    0.0000 C   0  0  0  0  0  0  0  0  0  0  0  0
    3.5075   -0.1764    0.0000 C   0  0  0  0  0  0  0  0  0  0  0  0
    3.9200   -0.8908    0.0000 C   0  0  0  0  0  0  0  0  0  0  0  0
    3.5075   -1.6053    0.0000 C   0  0  0  0  0  0  0  0  0  0  0  0
    2.6825   -1.6053    0.0000 C   0  0  0  0  0  0  0  0  0  0  0  0
    1.0325   -0.1764    0.0000 O   0  0  0  0  0  0  0  0  0  0  0  0
  1  2  2  0      
  2  3  1  0      
  3  4  1  0      
  4  5  1  0      
  1  5  1  0      
  6  7  1  0      
  7  8  2  0      
  8  9  1  0      
  4  9  2  0      
  3  6  2  0      
 10 11  2  0      
 10 12  1  0      
  7 10  1  0      
 13 14  1  0      
 14 15  1  0      
 16 17  1  0      
 17 18  2  0      
 18 19  1  0      
 19 20  2  0      
 20 21  1  0      
 16 21  2  0      
 15 16  1  0      
  5 13  1  0      
 23 24  1  0      
 24 25  1  0      
 25 26  2  0      
 26 27  1  0      
 27 28  2  0      
 28 29  1  0      
 24 29  2  0      
 23 30  2  0      
 22 23  1  0      
  1 22  1  0      
M  END

>  <RackCode>
HYCPK72335

>  <Cat. No.>
HY-15647

>  <Product Name>
BRD9539

>  <ROW>
A

>  <COLUMN>
22

>  <CAS No.>
1374601-41-8

>  <MWt>
399.44

>  <Target>
Histone Methyltransferase

>  <Saltdate>
Free Acid

>  <Smiles>
O=C(C1=CC=C2C(N=C(NC(C3=CC=CC=C3)=O)N2CCCC4=CC=CC=C4)=C1)O

>  <Solvent>
DMSO Solution

>  <Batch No.>
21825

>  <Quantity>
10mM  * 50uL

>  <Pathway>
Epigenetics

>  <Synonyms>


>  <Formula>
C24H21N3O3

>  <Research_Area>
Cancer

>  <Clinical_Information>
No Development Reported

>  <SUPPLIER>
MedChemExpress

$$$$
Untitled Document
  ChemDraw01102216072D

 38 43  0  0  0  0  0  0  0  0999 V2000
   -4.4402    2.6404    0.0000 N   0  0  0  0  0  0  0  0  0  0  0  0
   -3.7257    3.0529    0.0000 C   0  0  0  0  0  0  0  0  0  0  0  0
   -3.0112    2.6404    0.0000 C   0  0  0  0  0  0  0  0  0  0  0  0
   -3.0112    1.8154    0.0000 N   0  0  0  0  0  0  0  0  0  0  0  0
   -3.7257    1.4029    0.0000 C   0  0  0  0  0  0  0  0  0  0  0  0
   -3.7257    0.5779    0.0000 C   0  0  0  0  0  0  0  0  0  0  0  0
   -4.4402    0.1654    0.0000 C   0  0  0  0  0  0  0  0  0  0  0  0
   -5.1546    0.5779    0.0000 C   0  0  0  0  0  0  0  0  0  0  0  0
   -5.1546    1.4029    0.0000 C   0  0  0  0  0  0  0  0  0  0  0  0
   -4.4402    1.8154    0.0000 C   0  0  0  0  0  0  0  0  0  0  0  0
   -3.0137    0.1668    0.0000 C   0  0  0  0  0  0  0  0  0  0  0  0
   -2.3017    0.5779    0.0000 O   0  0  0  0  0  0  0  0  0  0  0  0
   -3.0137   -0.6553    0.0000 N   0  0  0  0  0  0  0  0  0  0  0  0
   -2.3017   -1.0664    0.0000 C   0  0  0  0  0  0  0  0  0  0  0  0
   -1.5048   -0.8529    0.0000 C   0  0  0  0  0  0  0  0  0  0  0  0
   -1.2913   -1.6498    0.0000 C   0  0  0  0  0  0  0  0  0  0  0  0
   -2.0882   -1.8633    0.0000 C   0  0  0  0  0  0  0  0  0  0  0  0
    0.3139   -3.0529    0.0000 N   0  0  0  0  0  0  0  0  0  0  0  0
   -0.4931   -2.8813    0.0000 N   0  0  0  0  0  0  0  0  0  0  0  0
   -0.5793   -2.0608    0.0000 C   0  0  0  0  0  0  0  0  0  0  0  0
    0.1744   -1.7253    0.0000 N   0  0  0  0  0  0  0  0  0  0  0  0
    0.7264   -2.3384    0.0000 C   0  0  0  0  0  0  0  0  0  0  0  0
    0.3453   -0.9211    0.0000 C   0  0  0  0  0  0  0  0  0  0  0  0
   -0.2678   -0.3691    0.0000 C   0  0  0  0  0  0  0  0  0  0  0  0
   -0.0963    0.4379    0.0000 C   0  0  0  0  0  0  0  0  0  0  0  0
    0.6883    0.6928    0.0000 C   0  0  0  0  0  0  0  0  0  0  0  0
    1.3014    0.1408    0.0000 C   0  0  0  0  0  0  0  0  0  0  0  0
    1.1299   -0.6662    0.0000 C   0  0  0  0  0  0  0  0  0  0  0  0
   -1.0497   -0.6231    0.0000 F   0  0  0  0  0  0  0  0  0  0  0  0
    1.5440   -2.2524    0.0000 C   0  0  0  0  0  0  0  0  0  0  0  0
    1.8796   -1.4988    0.0000 C   0  0  0  0  0  0  0  0  0  0  0  0
    2.7001   -1.4125    0.0000 C   0  0  0  0  0  0  0  0  0  0  0  0
    3.1850   -2.0800    0.0000 C   0  0  0  0  0  0  0  0  0  0  0  0
    2.8494   -2.8337    0.0000 C   0  0  0  0  0  0  0  0  0  0  0  0
    2.0289   -2.9199    0.0000 N   0  0  0  0  0  0  0  0  0  0  0  0
    4.0026   -1.9940    0.0000 O   0  0  0  0  0  0  0  0  0  0  0  0
    4.3370   -1.2430    0.0000 C   0  0  0  0  0  0  0  0  0  0  0  0
    5.1546   -1.1570    0.0000 C   0  0  0  0  0  0  0  0  0  0  0  0
  1  2  2  0      
  2  3  1  0      
  3  4  2  0      
  4  5  1  0      
  5  6  2  0      
  6  7  1  0      
  7  8  2  0      
  8  9  1  0      
  9 10  2  0      
  1 10  1  0      
  5 10  1  0      
 11 12  2  0      
 11 13  1  0      
  6 11  1  0      
 14 15  1  0      
 15 16  1  0      
 16 17  1  0      
 14 17  1  0      
 18 19  1  0      
 19 20  2  0      
 21 20  1  1      
 21 22  1  6      
 18 22  2  0      
 23 24  1  0      
 24 25  2  0      
 25 26  1  0      
 26 27  2  0      
 27 28  1  0      
 23 28  2  0      
 24 29  1  0      
 21 23  1  0      
 30 31  1  0      
 31 32  2  0      
 32 33  1  0      
 33 34  2  0      
 34 35  1  0      
 30 35  2  0      
 37 38  1  0      
 36 37  1  0      
 33 36  1  0      
 22 30  1  0      
 16 20  1  6      
 14 13  1  1      
M  END

>  <RackCode>
HYCPK72335

>  <Cat. No.>
HY-145267

>  <Product Name>
OM-153

>  <ROW>
B

>  <COLUMN>
22

>  <CAS No.>
2406278-81-5

>  <MWt>
509.53

>  <Target>
PARP; Wnt

>  <Saltdate>


>  <Smiles>
O=C(C1=C2N=CC=NC2=CC=C1)N[C@H]3C[C@H](C4=NN=C(C5=NC=C(OCC)C=C5)[N@]4[C@]6=CC=CC=C6F)C3

>  <Solvent>
DMSO Solution

>  <Batch No.>
241811

>  <Quantity>
10mM  * 50uL

>  <Pathway>
Cell Cycle/DNA Damage; Epigenetics; Stem Cell/Wnt

>  <Synonyms>


>  <Formula>
C28H24FN7O2

>  <Research_Area>
Cancer

>  <Clinical_Information>
No Development Reported

>  <SUPPLIER>
MedChemExpress

$$$$
Untitled Document
  ChemDraw10262216242D

 40 45  0  0  0  0  0  0  0  0999 V2000
    5.3960    1.2978    0.0000 O   0  0  0  0  0  0  0  0  0  0  0  0
    5.8085    0.5834    0.0000 S   0  0  0  0  0  0  0  0  0  0  0  0
    5.0940    0.1709    0.0000 C   0  0  0  0  0  0  0  0  0  0  0  0
    4.3795    0.5834    0.0000 C   0  0  0  0  0  0  0  0  0  0  0  0
    3.6651    0.1709    0.0000 C   0  0  0  0  0  0  0  0  0  0  0  0
    5.0940   -0.6541    0.0000 C   0  0  0  0  0  0  0  0  0  0  0  0
    4.3795   -1.0666    0.0000 C   0  0  0  0  0  0  0  0  0  0  0  0
    3.6651   -0.6541    0.0000 C   0  0  0  0  0  0  0  0  0  0  0  0
    2.9506   -1.0666    0.0000 N   0  0  0  0  0  0  0  0  0  0  0  0
    2.1537   -0.8531    0.0000 C   0  0  0  0  0  0  0  0  0  0  0  0
    2.7371   -1.8635    0.0000 C   0  0  0  0  0  0  0  0  0  0  0  0
    1.9402   -1.6500    0.0000 C   0  0  0  0  0  0  0  0  0  0  0  0
    1.2257   -2.0625    0.0000 C   0  0  0  0  0  0  0  0  0  0  0  0
    0.5112   -1.6500    0.0000 N   0  0  0  0  0  0  0  0  0  0  0  0
    0.5112   -0.8250    0.0000 C   0  0  0  0  0  0  0  0  0  0  0  0
   -0.2032   -0.4125    0.0000 C   0  0  0  0  0  0  0  0  0  0  0  0
   -0.2032   -2.0625    0.0000 C   0  0  0  0  0  0  0  0  0  0  0  0
   -0.9177   -1.6500    0.0000 C   0  0  0  0  0  0  0  0  0  0  0  0
   -0.9177   -0.8250    0.0000 C   0  0  0  0  0  0  0  0  0  0  0  0
   -1.6322   -0.4125    0.0000 N   0  0  0  0  0  0  0  0  0  0  0  0
   -1.6322    0.4125    0.0000 C   0  0  0  0  0  0  0  0  0  0  0  0
   -0.9177    0.8250    0.0000 N   0  0  0  0  0  0  0  0  0  0  0  0
   -0.9177    1.6500    0.0000 C   0  0  0  0  0  0  0  0  0  0  0  0
   -1.6322    2.0625    0.0000 N   0  0  0  0  0  0  0  0  0  0  0  0
   -2.3466    1.6500    0.0000 C   0  0  0  0  0  0  0  0  0  0  0  0
   -3.0611    2.0625    0.0000 C   0  0  0  0  0  0  0  0  0  0  0  0
   -3.7756    1.6500    0.0000 C   0  0  0  0  0  0  0  0  0  0  0  0
   -3.7756    0.8250    0.0000 C   0  0  0  0  0  0  0  0  0  0  0  0
   -4.4901    0.4125    0.0000 O   0  0  0  0  0  0  0  0  0  0  0  0
   -5.2045    0.8250    0.0000 C   0  0  0  0  0  0  0  0  0  0  0  0
   -5.9190    0.4125    0.0000 C   0  0  0  0  0  0  0  0  0  0  0  0
   -6.6335    0.8250    0.0000 N   0  0  0  0  0  0  0  0  0  0  0  0
   -7.3479    0.4125    0.0000 C   0  0  0  0  0  0  0  0  0  0  0  0
   -6.6335    1.6500    0.0000 C   0  0  0  0  0  0  0  0  0  0  0  0
   -3.0611    0.4125    0.0000 N   0  0  0  0  0  0  0  0  0  0  0  0
   -2.3466    0.8250    0.0000 C   0  0  0  0  0  0  0  0  0  0  0  0
    6.5229    0.9959    0.0000 C   0  0  0  0  0  0  0  0  0  0  0  0
    7.3479    0.9959    0.0000 C   0  0  0  0  0  0  0  0  0  0  0  0
    6.9354    1.7103    0.0000 C   0  0  0  0  0  0  0  0  0  0  0  0
    6.2210   -0.1311    0.0000 O   0  0  0  0  0  0  0  0  0  0  0  0
  1  2  2  0      
  2  3  1  0      
  3  4  1  0      
  4  5  2  0      
  3  6  2  0      
  6  7  1  0      
  7  8  2  0      
  5  8  1  0      
  8  9  1  0      
  9 10  1  0      
  9 11  1  0      
 11 12  1  0      
 10 12  1  0      
 12 13  1  0      
 13 14  1  0      
 14 15  1  0      
 15 16  1  0      
 14 17  1  0      
 17 18  1  0      
 18 19  1  0      
 16 19  1  0      
 19 20  1  0      
 20 21  1  0      
 21 22  2  0      
 22 23  1  0      
 23 24  2  0      
 24 25  1  0      
 25 26  2  0      
 26 27  1  0      
 27 28  2  0      
 28 29  1  0      
 29 30  1  0      
 30 31  1  0      
 31 32  1  0      
 32 33  1  0      
 32 34  1  0      
 28 35  1  0      
 35 36  2  0      
 25 36  1  0      
 21 36  1  0      
  2 37  1  0      
 37 38  1  0      
 38 39  1  0      
 37 39  1  0      
  2 40  2  0      
M  END

>  <RackCode>
HYCPK72335

>  <Cat. No.>
HY-151595

>  <Product Name>
Menin-MLL inhibitor-22

>  <ROW>
C

>  <COLUMN>
22

>  <CAS No.>
2851841-61-5

>  <MWt>
565.73

>  <Target>
Epigenetic Reader Domain

>  <Saltdate>


>  <Smiles>
O=S(C1=CC=C(N2CC(CN3CCC(NC4=NC=NC5=CC=C(N=C54)OCCN(C)C)CC3)C2)C=C1)(C6CC6)=O

>  <Solvent>
DMSO Solution

>  <Batch No.>
351665

>  <Quantity>
10mM  * 50uL

>  <Pathway>
Epigenetics

>  <Synonyms>


>  <Formula>
C29H39N7O3S

>  <Research_Area>
Cancer

>  <Clinical_Information>
No Development Reported

>  <SUPPLIER>
MedChemExpress

$$$$
Untitled Document
  ChemDraw08052408322D

 36 40  0  0  0  0  0  0  0  0999 V2000
   -0.6006   -0.2225    0.0000 N   0  0  0  0  0  0  0  0  0  0  0  0
   -0.1157   -0.8900    0.0000 C   0  0  0  0  0  0  0  0  0  0  0  0
   -0.6006   -1.5574    0.0000 N   0  0  0  0  0  0  0  0  0  0  0  0
   -1.3852   -1.3025    0.0000 C   0  0  0  0  0  0  0  0  0  0  0  0
   -1.3852   -0.4775    0.0000 C   0  0  0  0  0  0  0  0  0  0  0  0
   -2.0997   -1.7150    0.0000 C   0  0  0  0  0  0  0  0  0  0  0  0
   -2.8142   -1.3025    0.0000 C   0  0  0  0  0  0  0  0  0  0  0  0
   -2.8142   -0.4775    0.0000 C   0  0  0  0  0  0  0  0  0  0  0  0
   -2.0997   -0.0650    0.0000 C   0  0  0  0  0  0  0  0  0  0  0  0
   -0.3457    0.5621    0.0000 C   0  0  0  0  0  0  0  0  0  0  0  0
    0.4613    0.7336    0.0000 C   0  0  0  0  0  0  0  0  0  0  0  0
    1.0134    0.1205    0.0000 C   0  0  0  0  0  0  0  0  0  0  0  0
    0.7163    1.5182    0.0000 N   0  0  0  0  0  0  0  0  0  0  0  0
    0.1642    2.1313    0.0000 C   0  0  0  0  0  0  0  0  0  0  0  0
    0.4192    2.9160    0.0000 C   0  0  0  0  0  0  0  0  0  0  0  0
    1.2261    3.0875    0.0000 O   0  0  0  0  0  0  0  0  0  0  0  0
    1.7782    2.4744    0.0000 C   0  0  0  0  0  0  0  0  0  0  0  0
    1.5232    1.6898    0.0000 C   0  0  0  0  0  0  0  0  0  0  0  0
   -4.4218   -2.7070    0.0000 O   0  0  0  0  0  0  0  0  0  0  0  0
   -4.8343   -1.9925    0.0000 N   0  0  0  0  0  0  0  0  0  0  0  0
   -4.2823   -1.3794    0.0000 C   0  0  0  0  0  0  0  0  0  0  0  0
   -3.5286   -1.7150    0.0000 C   0  0  0  0  0  0  0  0  0  0  0  0
   -3.6149   -2.5355    0.0000 C   0  0  0  0  0  0  0  0  0  0  0  0
   -4.4538   -0.5724    0.0000 C   0  0  0  0  0  0  0  0  0  0  0  0
   -3.0018   -3.0875    0.0000 C   0  0  0  0  0  0  0  0  0  0  0  0
    0.7093   -0.8900    0.0000 C   0  0  0  0  0  0  0  0  0  0  0  0
    1.1218   -1.6044    0.0000 C   0  0  0  0  0  0  0  0  0  0  0  0
    1.9468   -1.6044    0.0000 C   0  0  0  0  0  0  0  0  0  0  0  0
    2.3593   -0.8900    0.0000 C   0  0  0  0  0  0  0  0  0  0  0  0
    3.1843   -0.8900    0.0000 C   0  0  0  0  0  0  0  0  0  0  0  0
    3.5968   -1.6044    0.0000 C   0  0  0  0  0  0  0  0  0  0  0  0
    3.1843   -2.3189    0.0000 C   0  0  0  0  0  0  0  0  0  0  0  0
    2.3593   -2.3189    0.0000 C   0  0  0  0  0  0  0  0  0  0  0  0
    4.4218   -1.6044    0.0000 O   0  0  0  0  0  0  0  0  0  0  0  0
    4.8343   -2.3189    0.0000 C   0  0  0  0  0  0  0  0  0  0  0  0
    3.5968   -0.1755    0.0000 Cl  0  0  0  0  0  0  0  0  0  0  0  0
  1  2  1  0      
  2  3  2  0      
  3  4  1  0      
  4  5  1  0      
  1  5  1  0      
  6  7  1  0      
  7  8  2  0      
  8  9  1  0      
  5  9  2  0      
  4  6  2  0      
 10 11  1  0      
 11 12  1  1      
 13 14  1  0      
 14 15  1  0      
 15 16  1  0      
 16 17  1  0      
 17 18  1  0      
 13 18  1  0      
 11 13  1  0      
  1 10  1  0      
 19 20  1  0      
 20 21  2  0      
 21 22  1  0      
 22 23  2  0      
 19 23  1  0      
 21 24  1  0      
 23 25  1  0      
  7 22  1  0      
 26 27  1  0      
 28 29  1  0      
 29 30  2  0      
 30 31  1  0      
 31 32  2  0      
 32 33  1  0      
 28 33  2  0      
 34 35  1  0      
 31 34  1  0      
 30 36  1  0      
 27 28  1  0      
  2 26  1  0      
M  END

>  <RackCode>
HYCPK72335

>  <Cat. No.>
HY-15826

>  <Product Name>
SGC-CBP30

>  <ROW>
D

>  <COLUMN>
22

>  <CAS No.>
1613695-14-9

>  <MWt>
509.04

>  <Target>
Epigenetic Reader Domain; Histone Acetyltransferase

>  <Saltdate>
Free Base

>  <Smiles>
C[C@H](N1CCOCC1)CN2C(CCC3=CC=C(OC)C(Cl)=C3)=NC4=CC(C5=C(C)ON=C5C)=CC=C42

>  <Solvent>
DMSO Solution

>  <Batch No.>
155575

>  <Quantity>
10mM  * 50uL

>  <Pathway>
Epigenetics

>  <Synonyms>


>  <Formula>
C28H33ClN4O3

>  <Research_Area>
Cancer; Inflammation/Immunology

>  <Clinical_Information>
No Development Reported

>  <SUPPLIER>
MedChemExpress

$$$$
Untitled Document
  ChemDraw05061913112D

 31 32  0  0  0  0  0  0  0  0999 V2000
   -1.1639    2.4729    0.0000 N   0  0  0  0  0  0  0  0  0  0  0  0
   -1.1639    1.6479    0.0000 C   0  0  0  0  0  0  0  0  0  0  0  0
   -0.4494    1.2354    0.0000 C   0  0  0  0  0  0  0  0  0  0  0  0
    0.2651    1.6479    0.0000 C   0  0  0  0  0  0  0  0  0  0  0  0
    0.2651    2.4729    0.0000 C   0  0  0  0  0  0  0  0  0  0  0  0
   -0.4494    2.8854    0.0000 C   0  0  0  0  0  0  0  0  0  0  0  0
    0.9795    1.2354    0.0000 C   0  0  0  0  0  0  0  0  0  0  0  0
    1.6940    1.6479    0.0000 C   0  0  0  0  0  0  0  0  0  0  0  0
    1.6940    2.4729    0.0000 N   0  0  0  0  0  0  0  0  0  0  0  0
    0.9795    2.8854    0.0000 C   0  0  0  0  0  0  0  0  0  0  0  0
   -1.8759    2.8839    0.0000 C   0  0  0  0  0  0  0  0  0  0  0  0
   -0.4494    3.7075    0.0000 O   0  0  0  0  0  0  0  0  0  0  0  0
   -0.4494    0.4132    0.0000 C   0  0  0  0  0  0  0  0  0  0  0  0
   -1.1639    0.0007    0.0000 C   0  0  0  0  0  0  0  0  0  0  0  0
   -1.1639   -0.8243    0.0000 C   0  0  0  0  0  0  0  0  0  0  0  0
   -0.4494   -1.2368    0.0000 C   0  0  0  0  0  0  0  0  0  0  0  0
    0.2651   -0.8243    0.0000 C   0  0  0  0  0  0  0  0  0  0  0  0
    0.2651    0.0007    0.0000 C   0  0  0  0  0  0  0  0  0  0  0  0
   -1.8759   -1.2354    0.0000 O   0  0  0  0  0  0  0  0  0  0  0  0
   -2.5854   -0.8257    0.0000 C   0  0  0  0  0  0  0  0  0  0  0  0
    0.9771   -1.2354    0.0000 O   0  0  0  0  0  0  0  0  0  0  0  0
    1.6866   -0.8257    0.0000 C   0  0  0  0  0  0  0  0  0  0  0  0
   -0.4494   -2.0589    0.0000 C   0  0  0  0  0  0  0  0  0  0  0  0
    0.2626   -2.4700    0.0000 N   0  0  0  0  0  0  0  0  0  0  0  0
    0.2626   -3.2950    0.0000 C   0  0  0  0  0  0  0  0  0  0  0  0
    0.9771   -3.7075    0.0000 C   0  0  0  0  0  0  0  0  0  0  0  0
    1.6915   -3.2950    0.0000 N   0  0  0  0  0  0  0  0  0  0  0  0
    1.6915   -2.4700    0.0000 C   0  0  0  0  0  0  0  0  0  0  0  0
    0.9771   -2.0575    0.0000 C   0  0  0  0  0  0  0  0  0  0  0  0
    2.5424    0.6682    0.0000 Cl  0  0  0  0  0  0  0  0  0  0  0  0
    2.5854   -0.1912    0.0000 Cl  0  0  0  0  0  0  0  0  0  0  0  0
  1  2  1  0      
  2  3  2  0      
  3  4  1  0      
  4  5  2  0      
  5  6  1  0      
  6  1  1  0      
  4  7  1  0      
  7  8  2  0      
  8  9  1  0      
  9 10  2  0      
 10  5  1  0      
  1 11  1  0      
  6 12  2  0      
  3 13  1  0      
 13 14  1  0      
 14 15  2  0      
 15 16  1  0      
 16 17  2  0      
 17 18  1  0      
 18 13  2  0      
 15 19  1  0      
 19 20  1  0      
 17 21  1  0      
 21 22  1  0      
 16 23  1  0      
 23 24  1  0      
 24 25  1  0      
 25 26  1  0      
 26 27  1  0      
 27 28  1  0      
 28 29  1  0      
 29 24  1  0      
M  END

>  <RackCode>
HYCPK72335

>  <Cat. No.>
HY-111905

>  <Product Name>
BRD7-IN-1

>  <ROW>
E

>  <COLUMN>
22

>  <CAS No.>
2448414-48-8

>  <MWt>
467.39

>  <Target>
Epigenetic Reader Domain

>  <Saltdate>
Hydrochloride

>  <Smiles>
CN1C=C(C2=CC(OC)=C(CN3CCNCC3)C(OC)=C2)C(C=CN=C4)=C4C1=O.Cl.Cl

>  <Solvent>
DMSO Solution

>  <Batch No.>
98605

>  <Quantity>
10mM  * 50uL

>  <Pathway>
Epigenetics

>  <Synonyms>


>  <Formula>
C22H28Cl2N4O3

>  <Research_Area>
Cancer

>  <Clinical_Information>
No Development Reported

>  <SUPPLIER>
MedChemExpress

$$$$
Untitled Document
  ChemDraw05221712412D

 34 36  0  0  0  0  0  0  0  0999 V2000
   -0.3572   -1.2375    0.0000 C   0  0  0  0  0  0  0  0  0  0  0  0
   -1.0717   -1.6500    0.0000 C   0  0  0  0  0  0  0  0  0  0  0  0
   -1.7861   -1.2375    0.0000 C   0  0  0  0  0  0  0  0  0  0  0  0
   -2.5005   -1.6500    0.0000 C   0  0  0  0  0  0  0  0  0  0  0  0
   -3.2150   -1.2375    0.0000 C   0  0  0  0  0  0  0  0  0  0  0  0
   -3.9295   -1.6500    0.0000 C   0  0  0  0  0  0  0  0  0  0  0  0
   -4.6440   -1.2375    0.0000 C   0  0  0  0  0  0  0  0  0  0  0  0
   -5.3583   -1.6500    0.0000 C   0  0  0  0  0  0  0  0  0  0  0  0
   -0.3572   -0.4125    0.0000 O   0  0  0  0  0  0  0  0  0  0  0  0
    0.3572   -1.6500    0.0000 N   0  0  0  0  0  0  0  0  0  0  0  0
    1.0717   -1.2375    0.0000 N   0  0  0  0  0  0  0  0  0  0  0  0
    1.7861   -1.6500    0.0000 C   0  0  0  0  0  0  0  0  0  0  0  0
    2.5005   -1.2375    0.0000 C   0  0  0  0  0  0  0  0  0  0  0  0
    2.5005   -0.4125    0.0000 C   0  0  0  0  0  0  0  0  0  0  0  0
    3.2150    0.0000    0.0000 C   0  0  0  0  0  0  0  0  0  0  0  0
    3.9295   -0.4125    0.0000 C   0  0  0  0  0  0  0  0  0  0  0  0
    3.9295   -1.2375    0.0000 C   0  0  0  0  0  0  0  0  0  0  0  0
    3.2150   -1.6500    0.0000 C   0  0  0  0  0  0  0  0  0  0  0  0
    4.6440    0.0000    0.0000 N   0  0  0  0  0  0  0  0  0  0  0  0
    5.3583   -0.4125    0.0000 C   0  0  0  0  0  0  0  0  0  0  0  0
    6.0728    0.0000    0.0000 C   0  0  0  0  0  0  0  0  0  0  0  0
    6.7873   -0.4125    0.0000 C   0  0  0  0  0  0  0  0  0  0  0  0
    6.7873   -1.2375    0.0000 C   0  0  0  0  0  0  0  0  0  0  0  0
    6.0728   -1.6500    0.0000 C   0  0  0  0  0  0  0  0  0  0  0  0
    5.3583   -1.2375    0.0000 C   0  0  0  0  0  0  0  0  0  0  0  0
    4.6440    0.8250    0.0000 C   0  0  0  0  0  0  0  0  0  0  0  0
    3.9295    1.2375    0.0000 C   0  0  0  0  0  0  0  0  0  0  0  0
    3.9295    2.0624    0.0000 C   0  0  0  0  0  0  0  0  0  0  0  0
    4.6440    2.4749    0.0000 C   0  0  0  0  0  0  0  0  0  0  0  0
    5.3583    2.0624    0.0000 C   0  0  0  0  0  0  0  0  0  0  0  0
    5.3583    1.2375    0.0000 C   0  0  0  0  0  0  0  0  0  0  0  0
   -5.3583   -2.4749    0.0000 O   0  0  0  0  0  0  0  0  0  0  0  0
   -6.0728   -1.2375    0.0000 N   0  0  0  0  0  0  0  0  0  0  0  0
   -6.7873   -1.6500    0.0000 O   0  0  0  0  0  0  0  0  0  0  0  0
  1  2  1  0      
  2  3  1  0      
  3  4  1  0      
  4  5  1  0      
  5  6  1  0      
  6  7  1  0      
  7  8  1  0      
  1  9  2  0      
 10 11  1  0      
 13 14  1  0      
 14 15  2  0      
 15 16  1  0      
 16 17  2  0      
 17 18  1  0      
 13 18  2  0      
 20 21  1  0      
 21 22  2  0      
 22 23  1  0      
 23 24  2  0      
 24 25  1  0      
 20 25  2  0      
 19 20  1  0      
 26 27  1  0      
 27 28  2  0      
 28 29  1  0      
 29 30  2  0      
 30 31  1  0      
 26 31  2  0      
 19 26  1  0      
 16 19  1  0      
 12 13  1  0      
 11 12  2  0      
  1 10  1  0      
  8 32  2  0      
 33 34  1  0      
  8 33  1  0      
M  END

>  <RackCode>
HYCPK72335

>  <Cat. No.>
HY-100871

>  <Product Name>
WT-161

>  <ROW>
F

>  <COLUMN>
22

>  <CAS No.>
1206731-57-8

>  <MWt>
458.55

>  <Target>
Apoptosis; Beta-lactamase; HDAC

>  <Saltdate>
Free Base

>  <Smiles>
O=C(N/N=C/C1=CC=C(N(C2=CC=CC=C2)C3=CC=CC=C3)C=C1)CCCCCCC(NO)=O

>  <Solvent>
DMSO Solution

>  <Batch No.>
24663

>  <Quantity>
10mM  * 50uL

>  <Pathway>
Anti-infection; Apoptosis; Cell Cycle/DNA Damage; Epigenetics

>  <Synonyms>


>  <Formula>
C27H30N4O3

>  <Research_Area>
Cancer

>  <Clinical_Information>
No Development Reported

>  <SUPPLIER>
MedChemExpress

$$$$
Untitled Document
  ChemDraw04281714542D

 40 45  0  0  0  0  0  0  0  0999 V2000
    1.3500    1.3480    0.0000 C   0  0  0  0  0  0  0  0  0  0  0  0
    1.3500    0.5230    0.0000 N   0  0  0  0  0  0  0  0  0  0  0  0
    2.0644    0.1105    0.0000 C   0  0  0  0  0  0  0  0  0  0  0  0
    2.7789    0.5230    0.0000 C   0  0  0  0  0  0  0  0  0  0  0  0
    2.7789    1.3480    0.0000 C   0  0  0  0  0  0  0  0  0  0  0  0
    2.0644    1.7605    0.0000 N   0  0  0  0  0  0  0  0  0  0  0  0
    2.0644   -0.7145    0.0000 N   0  0  0  0  0  0  0  0  0  0  0  0
    1.3500   -1.1270    0.0000 C   0  0  0  0  0  0  0  0  0  0  0  0
    0.6355   -0.7145    0.0000 C   0  0  0  0  0  0  0  0  0  0  0  0
   -0.0790   -1.1270    0.0000 C   0  0  0  0  0  0  0  0  0  0  0  0
   -0.0790   -1.9520    0.0000 N   0  0  0  0  0  0  0  0  0  0  0  0
    0.6355   -2.3645    0.0000 C   0  0  0  0  0  0  0  0  0  0  0  0
    1.3500   -1.9520    0.0000 C   0  0  0  0  0  0  0  0  0  0  0  0
   -0.7934   -2.3645    0.0000 C   0  0  0  0  0  0  0  0  0  0  0  0
   -1.5079   -1.9520    0.0000 C   0  0  0  0  0  0  0  0  0  0  0  0
   -1.5079   -1.1270    0.0000 C   0  0  0  0  0  0  0  0  0  0  0  0
   -2.2224   -0.7145    0.0000 C   0  0  0  0  0  0  0  0  0  0  0  0
   -2.9369   -1.1270    0.0000 C   0  0  0  0  0  0  0  0  0  0  0  0
   -2.9369   -1.9520    0.0000 C   0  0  0  0  0  0  0  0  0  0  0  0
   -2.2224   -2.3645    0.0000 C   0  0  0  0  0  0  0  0  0  0  0  0
   -3.7215   -0.8720    0.0000 N   0  0  0  0  0  0  0  0  0  0  0  0
   -4.2064   -1.5395    0.0000 C   0  0  0  0  0  0  0  0  0  0  0  0
   -3.7215   -2.2069    0.0000 C   0  0  0  0  0  0  0  0  0  0  0  0
    3.5635    0.2681    0.0000 C   0  0  0  0  0  0  0  0  0  0  0  0
    4.0485    0.9355    0.0000 C   0  0  0  0  0  0  0  0  0  0  0  0
    3.5635    1.6030    0.0000 S   0  0  0  0  0  0  0  0  0  0  0  0
    4.8735    0.9355    0.0000 C   0  0  0  0  0  0  0  0  0  0  0  0
    5.2860    1.6500    0.0000 C   0  0  0  0  0  0  0  0  0  0  0  0
    5.6985    2.3645    0.0000 F   0  0  0  0  0  0  0  0  0  0  0  0
    4.8735    2.3645    0.0000 F   0  0  0  0  0  0  0  0  0  0  0  0
    6.1110    1.6500    0.0000 F   0  0  0  0  0  0  0  0  0  0  0  0
   -5.0314   -1.5395    0.0000 C   0  0  0  0  0  0  0  0  0  0  0  0
   -5.8564   -1.5395    0.0000 N   0  0  0  0  0  0  0  0  0  0  0  0
   -3.9764   -0.0874    0.0000 C   0  0  0  0  0  0  0  0  0  0  0  0
   -4.7834    0.0841    0.0000 C   0  0  0  0  0  0  0  0  0  0  0  0
   -5.1189    0.8378    0.0000 C   0  0  0  0  0  0  0  0  0  0  0  0
   -5.9394    0.7516    0.0000 N   0  0  0  0  0  0  0  0  0  0  0  0
   -6.1110   -0.0554    0.0000 N   0  0  0  0  0  0  0  0  0  0  0  0
   -5.3965   -0.4679    0.0000 C   0  0  0  0  0  0  0  0  0  0  0  0
   -0.7934   -0.7145    0.0000 O   0  0  0  0  0  0  0  0  0  0  0  0
  1  2  1  0      
  2  3  2  0      
  3  4  1  0      
  4  5  2  0      
  5  6  1  0      
  6  1  2  0      
  3  7  1  0      
  7  8  1  0      
  8  9  1  0      
  9 10  1  0      
 10 11  1  0      
 11 12  1  0      
 12 13  1  0      
 13  8  1  0      
 11 14  1  0      
 14 15  1  0      
 15 16  2  0      
 16 17  1  0      
 17 18  2  0      
 18 19  1  0      
 19 20  2  0      
 20 15  1  0      
 18 21  1  0      
 21 22  1  0      
 22 23  2  0      
 23 19  1  0      
  4 24  1  0      
 24 25  2  0      
 25 26  1  0      
 26  5  1  0      
 25 27  1  0      
 27 28  1  0      
 22 32  1  0      
 28 29  1  0      
 28 30  1  0      
 28 31  1  0      
 32 33  3  0      
 21 34  1  0      
 34 35  1  0      
 35 36  1  0      
 36 37  2  0      
 37 38  1  0      
 38 39  1  0      
 39 35  2  0      
 16 40  1  0      
M  END

>  <RackCode>
HYCPK72335

>  <Cat. No.>
HY-19810

>  <Product Name>
MI-538

>  <ROW>
G

>  <COLUMN>
22

>  <CAS No.>
1857417-10-7

>  <MWt>
566.60

>  <Target>
Epigenetic Reader Domain

>  <Saltdate>
Free Base

>  <Smiles>
FC(F)(F)CC(S1)=CC2=C1N=CN=C2NC3CCN(CC4=C(O)C=C(N(CC5=CNN=C5)C(C#N)=C6)C6=C4)CC3

>  <Solvent>
DMSO Solution

>  <Batch No.>
24369

>  <Quantity>
10mM  * 50uL

>  <Pathway>
Epigenetics

>  <Synonyms>


>  <Formula>
C27H25F3N8OS

>  <Research_Area>
Cancer

>  <Clinical_Information>
No Development Reported

>  <SUPPLIER>
MedChemExpress

$$$$
Untitled Document
  ChemDraw11222317352D

 22 24  0  0  0  0  0  0  0  0999 V2000
    2.9552    1.3556    0.0000 O   0  0  0  0  0  0  0  0  0  0  0  0
    2.9552    0.5306    0.0000 C   0  0  0  0  0  0  0  0  0  0  0  0
    3.6697    0.1181    0.0000 N   0  0  0  0  0  0  0  0  0  0  0  0
    4.3841    0.5306    0.0000 N   0  0  0  0  0  0  0  0  0  0  0  0
    2.2408    0.1181    0.0000 C   0  0  0  0  0  0  0  0  0  0  0  0
    2.2408   -0.7069    0.0000 C   0  0  0  0  0  0  0  0  0  0  0  0
    1.5263   -1.1194    0.0000 N   0  0  0  0  0  0  0  0  0  0  0  0
    0.8119   -0.7069    0.0000 C   0  0  0  0  0  0  0  0  0  0  0  0
    0.8119    0.1181    0.0000 C   0  0  0  0  0  0  0  0  0  0  0  0
    1.5263    0.5306    0.0000 C   0  0  0  0  0  0  0  0  0  0  0  0
    0.0974   -1.1194    0.0000 C   0  0  0  0  0  0  0  0  0  0  0  0
   -0.6171   -0.7069    0.0000 N   0  0  0  0  0  0  0  0  0  0  0  0
   -0.7033    0.1135    0.0000 N   0  0  0  0  0  0  0  0  0  0  0  0
   -1.5103    0.2851    0.0000 N   0  0  0  0  0  0  0  0  0  0  0  0
   -1.9228   -0.4294    0.0000 C   0  0  0  0  0  0  0  0  0  0  0  0
   -1.3707   -1.0425    0.0000 N   0  0  0  0  0  0  0  0  0  0  0  0
   -2.7432   -0.5156    0.0000 C   0  0  0  0  0  0  0  0  0  0  0  0
   -3.0787   -1.2693    0.0000 N   0  0  0  0  0  0  0  0  0  0  0  0
   -3.8992   -1.3556    0.0000 C   0  0  0  0  0  0  0  0  0  0  0  0
   -4.3841   -0.6881    0.0000 C   0  0  0  0  0  0  0  0  0  0  0  0
   -4.0486    0.0656    0.0000 C   0  0  0  0  0  0  0  0  0  0  0  0
   -3.2281    0.1518    0.0000 C   0  0  0  0  0  0  0  0  0  0  0  0
  1  2  2  0      
  2  3  1  0      
  3  4  1  0      
  2  5  1  0      
  5  6  2  0      
  6  7  1  0      
  7  8  2  0      
  8  9  1  0      
  9 10  2  0      
  5 10  1  0      
  8 11  1  0      
 11 12  1  0      
 12 13  1  0      
 13 14  2  0      
 14 15  1  0      
 15 16  2  0      
 12 16  1  0      
 15 17  1  0      
 17 18  1  0      
 18 19  2  0      
 19 20  1  0      
 20 21  2  0      
 21 22  1  0      
 17 22  2  0      
M  END

>  <RackCode>
HYCPK72335

>  <Cat. No.>
HY-157219

>  <Product Name>
HDAC6-IN-26

>  <ROW>
H

>  <COLUMN>
22

>  <CAS No.>
2991427-19-9

>  <MWt>
296.29

>  <Target>
HDAC

>  <Saltdate>


>  <Smiles>
O=C(C1=CN=C(CN2N=NC(C3=CC=CC=N3)=N2)C=C1)NN

>  <Solvent>
DMSO Solution

>  <Batch No.>
338809

>  <Quantity>
10mM  * 50uL

>  <Pathway>
Cell Cycle/DNA Damage; Epigenetics

>  <Synonyms>


>  <Formula>
C13H12N8O

>  <Research_Area>
cancer

>  <Clinical_Information>
No Development Reported

>  <SUPPLIER>
MedChemExpress

$$$$
Untitled Document
  ChemDraw01031711312D

 14 15  0  0  0  0  0  0  0  0999 V2000
    0.7145    1.0313    0.0000 N   0  0  0  0  0  0  0  0  0  0  0  0
    1.4289    0.6187    0.0000 C   0  0  0  0  0  0  0  0  0  0  0  0
    1.4289   -0.2062    0.0000 C   0  0  0  0  0  0  0  0  0  0  0  0
    0.7145   -0.6188    0.0000 C   0  0  0  0  0  0  0  0  0  0  0  0
   -0.0000   -0.2062    0.0000 C   0  0  0  0  0  0  0  0  0  0  0  0
   -0.7145   -0.6188    0.0000 C   0  0  0  0  0  0  0  0  0  0  0  0
   -1.4289   -0.2062    0.0000 C   0  0  0  0  0  0  0  0  0  0  0  0
   -1.4289    0.6187    0.0000 C   0  0  0  0  0  0  0  0  0  0  0  0
   -0.7145    1.0313    0.0000 C   0  0  0  0  0  0  0  0  0  0  0  0
   -0.0000    0.6187    0.0000 C   0  0  0  0  0  0  0  0  0  0  0  0
   -0.7145   -1.4438    0.0000 C   0  0  0  0  0  0  0  0  0  0  0  0
   -0.0000   -1.8563    0.0000 O   0  0  0  0  0  0  0  0  0  0  0  0
   -1.4289   -1.8563    0.0000 O   0  0  0  0  0  0  0  0  0  0  0  0
   -0.7145    1.8563    0.0000 O   0  0  0  0  0  0  0  0  0  0  0  0
  1  2  2  0      
  2  3  1  0      
  3  4  2  0      
  4  5  1  0      
  5  6  2  0      
  6  7  1  0      
  7  8  2  0      
  8  9  1  0      
  9 10  2  0      
  1 10  1  0      
  5 10  1  0      
 11 12  2  0      
 11 13  1  0      
  6 11  1  0      
  9 14  1  0      
M  END

>  <RackCode>
HYCPK72335

>  <Cat. No.>
HY-12304

>  <Product Name>
IOX1

>  <ROW>
I

>  <COLUMN>
22

>  <CAS No.>
5852-78-8

>  <MWt>
189.17

>  <Target>
Histone Demethylase

>  <Saltdate>
Free Acid

>  <Smiles>
O=C(C1=C2C=CC=NC2=C(O)C=C1)O

>  <Solvent>
DMSO Solution

>  <Batch No.>
89761

>  <Quantity>
10mM  * 50uL

>  <Pathway>
Epigenetics

>  <Synonyms>


>  <Formula>
C10H7NO3

>  <Research_Area>
Cancer

>  <Clinical_Information>
No Development Reported

>  <SUPPLIER>
MedChemExpress

$$$$
Untitled Document
  ChemDraw04252309032D

 27 29  0  0  0  0  0  0  0  0999 V2000
    1.7862   -0.6187    0.0000 N   0  0  0  0  0  0  0  0  0  0  0  0
    2.5006   -1.0313    0.0000 C   0  0  0  0  0  0  0  0  0  0  0  0
    2.5006   -1.8563    0.0000 O   0  0  0  0  0  0  0  0  0  0  0  0
    3.2151   -0.6187    0.0000 C   0  0  0  0  0  0  0  0  0  0  0  0
    3.9296   -1.0313    0.0000 C   0  0  0  0  0  0  0  0  0  0  0  0
    4.6441   -0.6187    0.0000 C   0  0  0  0  0  0  0  0  0  0  0  0
    4.6441    0.2063    0.0000 C   0  0  0  0  0  0  0  0  0  0  0  0
    3.9296    0.6187    0.0000 C   0  0  0  0  0  0  0  0  0  0  0  0
    3.2151    0.2063    0.0000 C   0  0  0  0  0  0  0  0  0  0  0  0
    2.5006    0.6187    0.0000 O   0  0  0  0  0  0  0  0  0  0  0  0
    1.7862    0.2063    0.0000 C   0  0  0  0  0  0  0  0  0  0  0  0
    1.0717    0.6187    0.0000 C   0  0  0  0  0  0  0  0  0  0  0  0
    1.0717    1.4437    0.0000 C   0  0  0  0  0  0  0  0  0  0  0  0
    0.3572    1.8563    0.0000 C   0  0  0  0  0  0  0  0  0  0  0  0
   -0.3572    1.4437    0.0000 C   0  0  0  0  0  0  0  0  0  0  0  0
   -0.3572    0.6187    0.0000 C   0  0  0  0  0  0  0  0  0  0  0  0
   -1.0717    0.2063    0.0000 N   0  0  0  0  0  0  0  0  0  0  0  0
   -1.7862    0.6187    0.0000 C   0  0  0  0  0  0  0  0  0  0  0  0
   -1.7862    1.4437    0.0000 O   0  0  0  0  0  0  0  0  0  0  0  0
   -2.5006    0.2063    0.0000 C   0  0  0  0  0  0  0  0  0  0  0  0
   -2.5006   -0.6187    0.0000 C   0  0  0  0  0  0  0  0  0  0  0  0
   -3.2151   -1.0313    0.0000 C   0  0  0  0  0  0  0  0  0  0  0  0
   -3.9296   -0.6187    0.0000 C   0  0  0  0  0  0  0  0  0  0  0  0
   -4.6441   -1.0313    0.0000 Br  0  0  0  0  0  0  0  0  0  0  0  0
   -3.9296    0.2063    0.0000 C   0  0  0  0  0  0  0  0  0  0  0  0
   -3.2151    0.6187    0.0000 C   0  0  0  0  0  0  0  0  0  0  0  0
    0.3572    0.2063    0.0000 C   0  0  0  0  0  0  0  0  0  0  0  0
  1  2  1  0      
  2  3  2  0      
  2  4  1  0      
  4  5  2  0      
  5  6  1  0      
  6  7  2  0      
  7  8  1  0      
  8  9  2  0      
  4  9  1  0      
  9 10  1  0      
 10 11  1  0      
 11 12  1  0      
 12 13  2  0      
 13 14  1  0      
 14 15  2  0      
 15 16  1  0      
 16 17  1  0      
 17 18  1  0      
 18 19  2  0      
 18 20  1  0      
 20 21  2  0      
 21 22  1  0      
 22 23  2  0      
 23 24  1  0      
 23 25  1  0      
 25 26  2  0      
 20 26  1  0      
 16 27  2  0      
 12 27  1  0      
M  END

>  <RackCode>
HYCPK72335

>  <Cat. No.>
HY-149800

>  <Product Name>
PARP-1-IN-3

>  <ROW>
J

>  <COLUMN>
22

>  <CAS No.>
2976342-33-1

>  <MWt>
425.28

>  <Target>
Apoptosis; Caspase; PARP

>  <Saltdate>


>  <Smiles>
NC(C1=CC=CC=C1OCC2=CC=CC(NC(C3=CC=C(C=C3)Br)=O)=C2)=O

>  <Solvent>
DMSO Solution

>  <Batch No.>
305829

>  <Quantity>
10mM  * 50uL

>  <Pathway>
Apoptosis; Cell Cycle/DNA Damage; Epigenetics

>  <Synonyms>


>  <Formula>
C21H17BrN2O3

>  <Research_Area>
Cancer

>  <Clinical_Information>
No Development Reported

>  <SUPPLIER>
MedChemExpress

$$$$
Untitled Document
  ChemDraw05191716292D

 35 38  0  0  0  0  0  0  0  0999 V2000
   -2.9666    2.2680    0.0000 C   0  0  0  0  0  0  0  0  0  0  0  0
   -2.9666    1.4430    0.0000 C   0  0  0  0  0  0  0  0  0  0  0  0
   -2.2521    1.0305    0.0000 C   0  0  0  0  0  0  0  0  0  0  0  0
   -1.5376    1.4430    0.0000 C   0  0  0  0  0  0  0  0  0  0  0  0
   -1.5376    2.2680    0.0000 C   0  0  0  0  0  0  0  0  0  0  0  0
   -2.2521    2.6805    0.0000 C   0  0  0  0  0  0  0  0  0  0  0  0
   -2.2521    3.5027    0.0000 O   0  0  0  0  0  0  0  0  0  0  0  0
   -3.6787    1.0320    0.0000 O   0  0  0  0  0  0  0  0  0  0  0  0
   -3.6787    0.2098    0.0000 C   0  0  0  0  0  0  0  0  0  0  0  0
   -1.5401    3.9139    0.0000 C   0  0  0  0  0  0  0  0  0  0  0  0
   -0.8256    1.0320    0.0000 C   0  0  0  0  0  0  0  0  0  0  0  0
   -0.8256    0.2070    0.0000 C   0  0  0  0  0  0  0  0  0  0  0  0
   -0.1112   -0.2055    0.0000 C   0  0  0  0  0  0  0  0  0  0  0  0
    0.6033    0.2070    0.0000 C   0  0  0  0  0  0  0  0  0  0  0  0
    0.6033    1.0320    0.0000 C   0  0  0  0  0  0  0  0  0  0  0  0
   -0.1112    1.4445    0.0000 C   0  0  0  0  0  0  0  0  0  0  0  0
    1.2483   -0.3074    0.0000 O   0  0  0  0  0  0  0  0  0  0  0  0
    2.0526   -0.1238    0.0000 C   0  0  0  0  0  0  0  0  0  0  0  0
    2.4106    0.6195    0.0000 C   0  0  0  0  0  0  0  0  0  0  0  0
    2.0526    1.3628    0.0000 N   0  0  0  0  0  0  0  0  0  0  0  0
    1.2483    1.5463    0.0000 C   0  0  0  0  0  0  0  0  0  0  0  0
    2.5652    2.0055    0.0000 C   0  0  0  0  0  0  0  0  0  0  0  0
    3.3782    1.8830    0.0000 C   0  0  0  0  0  0  0  0  0  0  0  0
    2.2649    2.7708    0.0000 O   0  0  0  0  0  0  0  0  0  0  0  0
    3.6787    1.1177    0.0000 C   0  0  0  0  0  0  0  0  0  0  0  0
   -0.1112   -1.0277    0.0000 C   0  0  0  0  0  0  0  0  0  0  0  0
   -0.8231   -1.4387    0.0000 O   0  0  0  0  0  0  0  0  0  0  0  0
    0.6008   -1.4387    0.0000 N   0  0  0  0  0  0  0  0  0  0  0  0
    0.6008   -2.2637    0.0000 C   0  0  0  0  0  0  0  0  0  0  0  0
   -0.1136   -2.6762    0.0000 C   0  0  0  0  0  0  0  0  0  0  0  0
   -0.1136   -3.5012    0.0000 C   0  0  0  0  0  0  0  0  0  0  0  0
    0.6008   -3.9139    0.0000 C   0  0  0  0  0  0  0  0  0  0  0  0
    1.3153   -3.5012    0.0000 N   0  0  0  0  0  0  0  0  0  0  0  0
    1.3153   -2.6762    0.0000 C   0  0  0  0  0  0  0  0  0  0  0  0
    2.0273   -3.9125    0.0000 C   0  0  0  0  0  0  0  0  0  0  0  0
  1  2  2  0      
  2  3  1  0      
  3  4  2  0      
  4  5  1  0      
  5  6  2  0      
  6  1  1  0      
  6  7  1  0      
  2  8  1  0      
  8  9  1  0      
  7 10  1  0      
  4 11  1  0      
 11 12  2  0      
 12 13  1  0      
 13 14  2  0      
 14 15  1  0      
 15 16  2  0      
 16 11  1  0      
 14 17  1  0      
 17 18  1  0      
 18 19  1  0      
 19 20  1  0      
 20 21  1  0      
 21 15  1  0      
 20 22  1  0      
 22 23  1  0      
 22 24  2  0      
 23 25  1  0      
 13 26  1  0      
 26 27  2  0      
 26 28  1  0      
 29 28  1  6      
 29 30  1  0      
 30 31  1  0      
 31 32  1  0      
 32 33  1  0      
 33 34  1  0      
 34 29  1  0      
 33 35  1  0      
M  END

>  <RackCode>
HYCPK72335

>  <Cat. No.>
HY-100697

>  <Product Name>
TPOP146

>  <ROW>
K

>  <COLUMN>
22

>  <CAS No.>
2018300-62-2

>  <MWt>
481.58

>  <Target>
Epigenetic Reader Domain; Histone Acetyltransferase

>  <Saltdate>
Free Base

>  <Smiles>
COC1=CC(OC)=CC(C2=CC(C(N[C@H]3CCCN(C)C3)=O)=C(OCCN(C(CC)=O)C4)C4=C2)=C1

>  <Solvent>
DMSO Solution

>  <Batch No.>
25551

>  <Quantity>
10mM  * 50uL

>  <Pathway>
Epigenetics

>  <Synonyms>


>  <Formula>
C27H35N3O5

>  <Research_Area>
Cancer

>  <Clinical_Information>
No Development Reported

>  <SUPPLIER>
MedChemExpress

$$$$
Untitled Document
  ChemDraw04162217262D

 37 40  0  0  0  0  0  0  0  0999 V2000
   -0.6007   -1.6312    0.0000 N   0  0  0  0  0  0  0  0  0  0  0  0
   -1.3152   -2.0437    0.0000 C   0  0  0  0  0  0  0  0  0  0  0  0
   -2.0297   -1.6312    0.0000 C   0  0  0  0  0  0  0  0  0  0  0  0
   -2.0297   -0.8062    0.0000 N   0  0  0  0  0  0  0  0  0  0  0  0
   -2.7441   -0.3937    0.0000 C   0  0  0  0  0  0  0  0  0  0  0  0
   -3.4585   -0.8062    0.0000 O   0  0  0  0  0  0  0  0  0  0  0  0
   -2.7441    0.4313    0.0000 C   0  0  0  0  0  0  0  0  0  0  0  0
   -3.4115    0.9162    0.0000 C   0  0  0  0  0  0  0  0  0  0  0  0
   -3.1565    1.7008    0.0000 N   0  0  0  0  0  0  0  0  0  0  0  0
   -3.6415    2.3683    0.0000 S   0  0  0  0  0  0  0  0  0  0  0  0
   -4.1264    3.0356    0.0000 C   0  0  0  0  0  0  0  0  0  0  0  0
   -2.9740    2.8531    0.0000 O   0  0  0  0  0  0  0  0  0  0  0  0
   -4.3089    1.8834    0.0000 O   0  0  0  0  0  0  0  0  0  0  0  0
   -2.3316    1.7008    0.0000 C   0  0  0  0  0  0  0  0  0  0  0  0
   -2.0767    0.9162    0.0000 C   0  0  0  0  0  0  0  0  0  0  0  0
   -2.7441   -2.0437    0.0000 C   0  0  0  0  0  0  0  0  0  0  0  0
   -3.4585   -1.6312    0.0000 C   0  0  0  0  0  0  0  0  0  0  0  0
   -4.1730   -2.0437    0.0000 S   0  0  0  0  0  0  0  0  0  0  0  0
   -4.8875   -1.6312    0.0000 C   0  0  0  0  0  0  0  0  0  0  0  0
   -1.3152   -2.8686    0.0000 O   0  0  0  0  0  0  0  0  0  0  0  0
    0.1137   -2.0437    0.0000 C   0  0  0  0  0  0  0  0  0  0  0  0
    0.8674   -1.7081    0.0000 N   0  0  0  0  0  0  0  0  0  0  0  0
    1.4194   -2.3212    0.0000 C   0  0  0  0  0  0  0  0  0  0  0  0
    1.0069   -3.0356    0.0000 C   0  0  0  0  0  0  0  0  0  0  0  0
    0.2000   -2.8641    0.0000 S   0  0  0  0  0  0  0  0  0  0  0  0
    2.2399   -2.2350    0.0000 C   0  0  0  0  0  0  0  0  0  0  0  0
    2.5755   -1.4813    0.0000 C   0  0  0  0  0  0  0  0  0  0  0  0
    3.3959   -1.3951    0.0000 C   0  0  0  0  0  0  0  0  0  0  0  0
    3.8808   -2.0625    0.0000 C   0  0  0  0  0  0  0  0  0  0  0  0
    3.5452   -2.8161    0.0000 C   0  0  0  0  0  0  0  0  0  0  0  0
    2.7248   -2.9023    0.0000 C   0  0  0  0  0  0  0  0  0  0  0  0
    3.7314   -0.6414    0.0000 C   0  0  0  0  0  0  0  0  0  0  0  0
    4.5519   -0.5552    0.0000 C   0  0  0  0  0  0  0  0  0  0  0  0
    4.8875    0.1985    0.0000 C   0  0  0  0  0  0  0  0  0  0  0  0
    4.4025    0.8659    0.0000 N   0  0  0  0  0  0  0  0  0  0  0  0
    3.5821    0.7797    0.0000 C   0  0  0  0  0  0  0  0  0  0  0  0
    3.2465    0.0260    0.0000 C   0  0  0  0  0  0  0  0  0  0  0  0
  1  2  1  0      
  2  3  1  0      
  3  4  1  6      
  4  5  1  0      
  5  6  2  0      
  5  7  1  0      
  7  8  2  0      
  8  9  1  0      
  9 10  1  0      
 10 11  1  0      
 10 12  2  0      
 10 13  2  0      
  9 14  1  0      
 14 15  2  0      
  7 15  1  0      
  3 16  1  0      
 16 17  1  0      
 17 18  1  0      
 18 19  1  0      
  2 20  2  0      
  1 21  1  0      
 21 22  2  0      
 22 23  1  0      
 23 24  2  0      
 24 25  1  0      
 21 25  1  0      
 23 26  1  0      
 26 27  2  0      
 27 28  1  0      
 28 29  2  0      
 29 30  1  0      
 30 31  2  0      
 26 31  1  0      
 28 32  1  0      
 32 33  1  0      
 33 34  2  0      
 34 35  1  0      
 35 36  2  0      
 36 37  1  0      
 32 37  2  0      
M  END

>  <RackCode>
HYCPK72335

>  <Cat. No.>
HY-144896

>  <Product Name>
FHT-1015

>  <ROW>
L

>  <COLUMN>
22

>  <CAS No.>
2368903-18-6

>  <MWt>
555.69

>  <Target>
Epigenetic Reader Domain

>  <Saltdate>


>  <Smiles>
O=C(C1=CN(C=C1)S(C)(=O)=O)N[C@@H](CCSC)C(NC2=NC(C3=CC(C4=CC=NC=C4)=CC=C3)=CS2)=O

>  <Solvent>
DMSO Solution

>  <Batch No.>
160320

>  <Quantity>
10mM  * 50uL

>  <Pathway>
Epigenetics

>  <Synonyms>


>  <Formula>
C25H25N5O4S3

>  <Research_Area>
Cancer

>  <Clinical_Information>
No Development Reported

>  <SUPPLIER>
MedChemExpress

$$$$
Untitled Document
  ChemDraw06151616342D

 29 33  0  0  0  0  0  0  0  0999 V2000
   -3.0982    3.1952    0.0000 C   0  0  0  0  0  0  0  0  0  0  0  0
   -2.5461    2.5821    0.0000 C   0  0  0  0  0  0  0  0  0  0  0  0
   -1.7391    2.7537    0.0000 C   0  0  0  0  0  0  0  0  0  0  0  0
   -1.4842    3.5383    0.0000 C   0  0  0  0  0  0  0  0  0  0  0  0
   -2.0362    4.1514    0.0000 C   0  0  0  0  0  0  0  0  0  0  0  0
   -2.8432    3.9799    0.0000 C   0  0  0  0  0  0  0  0  0  0  0  0
   -1.0717    2.2688    0.0000 N   0  0  0  0  0  0  0  0  0  0  0  0
   -0.4043    2.7537    0.0000 C   0  0  0  0  0  0  0  0  0  0  0  0
   -0.6592    3.5383    0.0000 C   0  0  0  0  0  0  0  0  0  0  0  0
    0.4027    2.5821    0.0000 C   0  0  0  0  0  0  0  0  0  0  0  0
    0.9547    3.1952    0.0000 C   0  0  0  0  0  0  0  0  0  0  0  0
    0.6998    3.9799    0.0000 C   0  0  0  0  0  0  0  0  0  0  0  0
   -0.1072    4.1514    0.0000 C   0  0  0  0  0  0  0  0  0  0  0  0
   -1.0717    1.4438    0.0000 C   0  0  0  0  0  0  0  0  0  0  0  0
   -0.3572    1.0313    0.0000 C   0  0  0  0  0  0  0  0  0  0  0  0
    0.3572    1.4438    0.0000 O   0  0  0  0  0  0  0  0  0  0  0  0
   -0.3572    0.2063    0.0000 C   0  0  0  0  0  0  0  0  0  0  0  0
    0.3572   -0.2062    0.0000 N   0  0  0  0  0  0  0  0  0  0  0  0
    0.3572   -1.0313    0.0000 C   0  0  0  0  0  0  0  0  0  0  0  0
    1.0717   -1.4438    0.0000 C   0  0  0  0  0  0  0  0  0  0  0  0
    1.0717   -2.2688    0.0000 C   0  0  0  0  0  0  0  0  0  0  0  0
    0.4043   -2.7537    0.0000 C   0  0  0  0  0  0  0  0  0  0  0  0
    0.6592   -3.5383    0.0000 N   0  0  0  0  0  0  0  0  0  0  0  0
    1.4842   -3.5383    0.0000 C   0  0  0  0  0  0  0  0  0  0  0  0
    1.7391   -2.7537    0.0000 C   0  0  0  0  0  0  0  0  0  0  0  0
    2.0362   -4.1514    0.0000 C   0  0  0  0  0  0  0  0  0  0  0  0
    2.8432   -3.9799    0.0000 C   0  0  0  0  0  0  0  0  0  0  0  0
    3.0982   -3.1952    0.0000 C   0  0  0  0  0  0  0  0  0  0  0  0
    2.5461   -2.5821    0.0000 C   0  0  0  0  0  0  0  0  0  0  0  0
  1  2  2  0      
  2  3  1  0      
  3  4  2  0      
  4  5  1  0      
  5  6  2  0      
  6  1  1  0      
  3  7  1  0      
  7  8  1  0      
  8  9  1  0      
  9  4  1  0      
  8 10  2  0      
 10 11  1  0      
 11 12  2  0      
 12 13  1  0      
 13  9  2  0      
  7 14  1  0      
 14 15  1  0      
 15 16  1  0      
 15 17  1  0      
 17 18  1  0      
 18 19  1  0      
 19 20  1  0      
 20 21  1  0      
 21 22  2  0      
 22 23  1  0      
 23 24  1  0      
 24 25  2  0      
 25 21  1  0      
 24 26  1  0      
 26 27  2  0      
 27 28  1  0      
 28 29  2  0      
 29 25  1  0      
M  END

>  <RackCode>
HYCPK72335

>  <Cat. No.>
HY-12746

>  <Product Name>
DC-05

>  <ROW>
M

>  <COLUMN>
22

>  <CAS No.>
890643-16-0

>  <MWt>
383.49

>  <Target>
DNA Methyltransferase

>  <Saltdate>
Free Base

>  <Smiles>
OC(CNCCC1=CNC2=C1C=CC=C2)CN(C3=CC=CC=C34)C5=C4C=CC=C5

>  <Solvent>
DMSO Solution

>  <Batch No.>
15725

>  <Quantity>
10mM  * 50uL

>  <Pathway>
Epigenetics

>  <Synonyms>


>  <Formula>
C25H25N3O

>  <Research_Area>
Cancer

>  <Clinical_Information>
No Development Reported

>  <SUPPLIER>
MedChemExpress

$$$$
Untitled Document
  ChemDraw12171914222D

 22 24  0  0  0  0  0  0  0  0999 V2000
   -2.4390    0.5512    0.0000 C   0  0  0  0  0  0  0  0  0  0  0  0
   -1.7246    0.1387    0.0000 C   0  0  0  0  0  0  0  0  0  0  0  0
   -1.7246   -0.6863    0.0000 C   0  0  0  0  0  0  0  0  0  0  0  0
   -2.4390   -1.0988    0.0000 C   0  0  0  0  0  0  0  0  0  0  0  0
   -3.1535   -0.6863    0.0000 C   0  0  0  0  0  0  0  0  0  0  0  0
   -3.1535    0.1387    0.0000 N   0  0  0  0  0  0  0  0  0  0  0  0
   -1.0101    0.5512    0.0000 C   0  0  0  0  0  0  0  0  0  0  0  0
   -1.0101    1.3762    0.0000 O   0  0  0  0  0  0  0  0  0  0  0  0
   -0.2956    0.1387    0.0000 C   0  0  0  0  0  0  0  0  0  0  0  0
    0.4189    0.5512    0.0000 C   0  0  0  0  0  0  0  0  0  0  0  0
    1.1333    0.1387    0.0000 C   0  0  0  0  0  0  0  0  0  0  0  0
    1.1333   -0.6863    0.0000 C   0  0  0  0  0  0  0  0  0  0  0  0
    0.4189   -1.0988    0.0000 C   0  0  0  0  0  0  0  0  0  0  0  0
   -0.2956   -0.6863    0.0000 C   0  0  0  0  0  0  0  0  0  0  0  0
    0.4189   -1.9238    0.0000 O   0  0  0  0  0  0  0  0  0  0  0  0
    2.7410    1.5433    0.0000 O   0  0  0  0  0  0  0  0  0  0  0  0
    3.1535    0.8288    0.0000 N   0  0  0  0  0  0  0  0  0  0  0  0
    2.6015    0.2157    0.0000 C   0  0  0  0  0  0  0  0  0  0  0  0
    1.8478    0.5512    0.0000 C   0  0  0  0  0  0  0  0  0  0  0  0
    1.9340    1.3717    0.0000 C   0  0  0  0  0  0  0  0  0  0  0  0
    1.3209    1.9238    0.0000 C   0  0  0  0  0  0  0  0  0  0  0  0
    2.7730   -0.5913    0.0000 C   0  0  0  0  0  0  0  0  0  0  0  0
  1  2  1  0      
  2  3  2  0      
  3  4  1  0      
  4  5  2  0      
  5  6  1  0      
  1  6  2  0      
  7  8  1  0      
  2  7  1  0      
  9 10  1  0      
 10 11  2  0      
 11 12  1  0      
 12 13  2  0      
 13 14  1  0      
  9 14  2  0      
 13 15  1  0      
 16 17  1  0      
 17 18  2  0      
 18 19  1  0      
 19 20  2  0      
 16 20  1  0      
 20 21  1  0      
 18 22  1  0      
 11 19  1  0      
  7  9  1  0      
M  END

>  <RackCode>
HYCPK72335

>  <Cat. No.>
HY-135236

>  <Product Name>
OXFBD04

>  <ROW>
N

>  <COLUMN>
22

>  <CAS No.>
2231747-03-6

>  <MWt>
296.32

>  <Target>
Epigenetic Reader Domain

>  <Saltdate>


>  <Smiles>
OC(C1=CC(O)=CC(C2=C(C)ON=C2C)=C1)C3=CC=CN=C3

>  <Solvent>
DMSO Solution

>  <Batch No.>
62157

>  <Quantity>
10mM  * 50uL

>  <Pathway>
Epigenetics

>  <Synonyms>


>  <Formula>
C17H16N2O3

>  <Research_Area>
Cancer

>  <Clinical_Information>
No Development Reported

>  <SUPPLIER>
MedChemExpress

$$$$
Untitled Document
  ChemDraw03171709082D

 43 49  0  0  0  0  0  0  0  0999 V2000
   -1.5296    0.7940    0.0000 O   0  0  0  0  0  0  0  0  0  0  0  0
   -1.5296   -0.0310    0.0000 C   0  0  0  0  0  0  0  0  0  0  0  0
   -1.5146   -0.8353    0.0000 O   0  0  0  0  0  0  0  0  0  0  0  0
   -0.8155   -1.2331    0.0000 C   0  0  0  0  0  0  0  0  0  0  0  0
   -0.1164   -0.8353    0.0000 C   0  0  0  0  0  0  0  0  0  0  0  0
   -0.1006   -0.0310    0.0000 C   0  0  0  0  0  0  0  0  0  0  0  0
   -0.1006    0.7940    0.0000 C   0  0  0  0  0  0  0  0  0  0  0  0
   -0.8151    1.2065    0.0000 C   0  0  0  0  0  0  0  0  0  0  0  0
    0.6138    1.2065    0.0000 C   0  0  0  0  0  0  0  0  0  0  0  0
    0.6138    2.0315    0.0000 C   0  0  0  0  0  0  0  0  0  0  0  0
   -0.1006    2.4440    0.0000 C   0  0  0  0  0  0  0  0  0  0  0  0
   -0.8151    2.0315    0.0000 C   0  0  0  0  0  0  0  0  0  0  0  0
    1.9709   -1.2504    0.0000 C   0  0  0  0  0  0  0  0  0  0  0  0
    1.9659   -2.0548    0.0000 C   0  0  0  0  0  0  0  0  0  0  0  0
    1.2668   -2.4526    0.0000 C   0  0  0  0  0  0  0  0  0  0  0  0
    0.5727   -2.0461    0.0000 C   0  0  0  0  0  0  0  0  0  0  0  0
    0.5777   -1.2418    0.0000 C   0  0  0  0  0  0  0  0  0  0  0  0
    1.2768   -0.8439    0.0000 O   0  0  0  0  0  0  0  0  0  0  0  0
   -0.8205   -2.0375    0.0000 C   0  0  0  0  0  0  0  0  0  0  0  0
   -0.1264   -2.4440    0.0000 C   0  0  0  0  0  0  0  0  0  0  0  0
   -0.8151   -0.4435    0.0000 C   0  0  0  0  0  0  0  0  0  0  0  0
    2.6779   -2.4659    0.0000 O   0  0  0  0  0  0  0  0  0  0  0  0
   -0.1264   -3.2661    0.0000 O   0  0  0  0  0  0  0  0  0  0  0  0
   -0.1006    3.2661    0.0000 O   0  0  0  0  0  0  0  0  0  0  0  0
    1.3258    0.7954    0.0000 O   0  0  0  0  0  0  0  0  0  0  0  0
   -0.8011    0.3814    0.0000 O   0  0  0  0  0  0  0  0  0  0  0  0
   -2.3517   -0.0310    0.0000 C   0  0  0  0  0  0  0  0  0  0  0  0
   -2.7642   -0.7455    0.0000 C   0  0  0  0  0  0  0  0  0  0  0  0
   -3.5892   -0.7455    0.0000 C   0  0  0  0  0  0  0  0  0  0  0  0
   -4.0017   -0.0310    0.0000 C   0  0  0  0  0  0  0  0  0  0  0  0
   -3.5892    0.6834    0.0000 C   0  0  0  0  0  0  0  0  0  0  0  0
   -2.7642    0.6834    0.0000 C   0  0  0  0  0  0  0  0  0  0  0  0
   -4.8238   -0.0310    0.0000 O   0  0  0  0  0  0  0  0  0  0  0  0
   -4.0003   -1.4575    0.0000 O   0  0  0  0  0  0  0  0  0  0  0  0
    2.6829   -0.8394    0.0000 C   0  0  0  0  0  0  0  0  0  0  0  0
    3.3974   -1.2519    0.0000 C   0  0  0  0  0  0  0  0  0  0  0  0
    4.1118   -0.8394    0.0000 C   0  0  0  0  0  0  0  0  0  0  0  0
    4.1118   -0.0144    0.0000 C   0  0  0  0  0  0  0  0  0  0  0  0
    3.3974    0.3981    0.0000 C   0  0  0  0  0  0  0  0  0  0  0  0
    2.6829   -0.0144    0.0000 C   0  0  0  0  0  0  0  0  0  0  0  0
    4.8238    0.3967    0.0000 O   0  0  0  0  0  0  0  0  0  0  0  0
    4.8238   -1.2504    0.0000 O   0  0  0  0  0  0  0  0  0  0  0  0
    0.7215   -0.0310    0.0000 H   0  0  0  0  0  0  0  0  0  0  0  0
  1  2  1  0      
  2  3  1  6      
  3  4  1  0      
  4  5  1  0      
  6  5  1  6      
  6  7  1  0      
  7  8  1  0      
  1  8  1  0      
  9 10  1  0      
 10 11  2  0      
 11 12  1  0      
  8 12  2  0      
  7  9  2  0      
 13 14  1  0      
 14 15  1  0      
 15 16  1  0      
 16 17  1  0      
 17 18  1  0      
 13 18  1  0      
 19 20  1  0      
 16 20  2  0      
  4 19  2  0      
  5 17  2  0      
  2 21  1  0      
  6 21  1  0      
 14 22  1  1      
 20 23  1  0      
 11 24  1  0      
  9 25  1  0      
 21 26  1  1      
 27 28  1  0      
 28 29  2  0      
 29 30  1  0      
 30 31  2  0      
 31 32  1  0      
 27 32  2  0      
 30 33  1  0      
 29 34  1  0      
  2 27  1  0      
 35 36  1  0      
 36 37  2  0      
 37 38  1  0      
 38 39  2  0      
 39 40  1  0      
 35 40  2  0      
 38 41  1  0      
 37 42  1  0      
 13 35  1  6      
  6 43  1  0      
M  END

>  <RackCode>
HYCPK72335

>  <Cat. No.>
HY-N2344

>  <Product Name>
Procyanidin A1

>  <ROW>
O

>  <COLUMN>
22

>  <CAS No.>
103883-03-0

>  <MWt>
576.50

>  <Target>
PKC

>  <Saltdate>
Free Base

>  <Smiles>
O[C@@H]1[C@@H](C2=CC=C(O)C(O)=C2)OC3=C4C(O[C@]5(C6=CC=C(O)C(O)=C6)OC7=CC(O)=CC(O)=C7[C@@]4([H])[C@H]5O)=CC(O)=C3C1

>  <Solvent>
DMSO Solution

>  <Batch No.>
275383

>  <Quantity>
10mM  * 50uL

>  <Pathway>
Epigenetics; TGF-beta/Smad

>  <Synonyms>
Proanthocyanidin A1

>  <Formula>
C30H24O12

>  <Research_Area>
Inflammation/Immunology

>  <Clinical_Information>
No Development Reported

>  <SUPPLIER>
MedChemExpress

$$$$
Untitled Document
  ChemDraw09282310322D

 80 88  0  0  0  0  0  0  0  0999 V2000
    0.7182    2.7908    0.0000 C   0  0  0  0  0  0  0  0  0  0  0  0
    0.7182    1.9756    0.0000 C   0  0  0  0  0  0  0  0  0  0  0  0
    0.7182    1.1452    0.0000 C   0  0  0  0  0  0  0  0  0  0  0  0
    1.4322    2.3846    0.0000 C   0  0  0  0  0  0  0  0  0  0  0  0
    0.0005    2.3846    0.0000 C   0  0  0  0  0  0  0  0  0  0  0  0
    0.0005    0.7360    0.0000 C   0  0  0  0  0  0  0  0  0  0  0  0
    2.1537    1.1452    0.0000 C   0  0  0  0  0  0  0  0  0  0  0  0
    2.1537    1.9756    0.0000 C   0  0  0  0  0  0  0  0  0  0  0  0
    1.4322    3.2109    0.0000 C   0  0  0  0  0  0  0  0  0  0  0  0
   -0.7173    1.9756    0.0000 C   0  0  0  0  0  0  0  0  0  0  0  0
   -0.7173    1.1452    0.0000 C   0  0  0  0  0  0  0  0  0  0  0  0
    0.0005   -0.0902    0.0000 C   0  0  0  0  0  0  0  0  0  0  0  0
    2.8675    2.3846    0.0000 O   0  0  0  0  0  0  0  0  0  0  0  0
    0.8452    3.7859    0.0000 C   0  0  0  0  0  0  0  0  0  0  0  0
    2.8675    3.2109    0.0000 C   0  0  0  0  0  0  0  0  0  0  0  0
   -1.4287    0.7360    0.0000 C   0  0  0  0  0  0  0  0  0  0  0  0
   -0.7173   -0.4994    0.0000 C   0  0  0  0  0  0  0  0  0  0  0  0
    3.5850    3.6166    0.0000 C   0  0  0  0  0  0  0  0  0  0  0  0
   -1.4287    1.5553    0.0000 C   0  0  0  0  0  0  0  0  0  0  0  0
   -1.4287   -0.0902    0.0000 C   0  0  0  0  0  0  0  0  0  0  0  0
   -2.1470    1.1452    0.0000 C   0  0  0  0  0  0  0  0  0  0  0  0
    4.2988    3.2109    0.0000 C   0  0  0  0  0  0  0  0  0  0  0  0
   -2.1470   -0.4994    0.0000 C   0  0  0  0  0  0  0  0  0  0  0  0
   -2.8615    0.7360    0.0000 C   0  0  0  0  0  0  0  0  0  0  0  0
    5.0203    3.6166    0.0000 C   0  0  0  0  0  0  0  0  0  0  0  0
   -2.8615   -0.0902    0.0000 C   0  0  0  0  0  0  0  0  0  0  0  0
    5.7378    3.2109    0.0000 C   0  0  0  0  0  0  0  0  0  0  0  0
    5.0203    4.4359    0.0000 C   0  0  0  0  0  0  0  0  0  0  0  0
   -3.5801   -0.4959    0.0000 O   0  0  0  0  0  0  0  0  0  0  0  0
    6.4592    3.6166    0.0000 O   0  0  0  0  0  0  0  0  0  0  0  0
   -4.2992   -0.0902    0.0000 C   0  0  0  0  0  0  0  0  0  0  0  0
    7.1770    3.2109    0.0000 C   0  0  0  0  0  0  0  0  0  0  0  0
   -5.0175   -0.4959    0.0000 C   0  0  0  0  0  0  0  0  0  0  0  0
   -4.2992    0.7289    0.0000 O   0  0  0  0  0  0  0  0  0  0  0  0
    7.1770    2.3957    0.0000 O   0  0  0  0  0  0  0  0  0  0  0  0
    7.8908    3.6166    0.0000 C   0  0  0  0  0  0  0  0  0  0  0  0
   -5.0175   -1.9784    0.0000 O   0  0  0  0  0  0  0  0  0  0  0  0
   -5.7403   -0.0902    0.0000 C   0  0  0  0  0  0  0  0  0  0  0  0
   -5.0175    1.1383    0.0000 C   0  0  0  0  0  0  0  0  0  0  0  0
    7.8908    1.9784    0.0000 C   0  0  0  0  0  0  0  0  0  0  0  0
    7.8908    4.4359    0.0000 O   0  0  0  0  0  0  0  0  0  0  0  0
    8.6118    3.2109    0.0000 C   0  0  0  0  0  0  0  0  0  0  0  0
   -5.7401   -2.3881    0.0000 C   0  0  0  0  0  0  0  0  0  0  0  0
   -6.4550   -0.4959    0.0000 O   0  0  0  0  0  0  0  0  0  0  0  0
   -5.7403    0.7289    0.0000 C   0  0  0  0  0  0  0  0  0  0  0  0
   -5.0175    1.9576    0.0000 C   0  0  0  0  0  0  0  0  0  0  0  0
    7.8908    1.1631    0.0000 C   0  0  0  0  0  0  0  0  0  0  0  0
    8.6118    2.3957    0.0000 C   0  0  0  0  0  0  0  0  0  0  0  0
    9.3335    3.6166    0.0000 O   0  0  0  0  0  0  0  0  0  0  0  0
   -6.4545   -1.9784    0.0000 C   0  0  0  0  0  0  0  0  0  0  0  0
   -5.7401   -3.2072    0.0000 O   0  0  0  0  0  0  0  0  0  0  0  0
   -6.4550    1.1383    0.0000 O   0  0  0  0  0  0  0  0  0  0  0  0
   -5.7401    2.3672    0.0000 O   0  0  0  0  0  0  0  0  0  0  0  0
    8.6121    0.7534    0.0000 O   0  0  0  0  0  0  0  0  0  0  0  0
    9.3335    1.9784    0.0000 O   0  0  0  0  0  0  0  0  0  0  0  0
   -6.4545   -1.1591    0.0000 O   0  0  0  0  0  0  0  0  0  0  0  0
   -7.1736   -2.3881    0.0000 C   0  0  0  0  0  0  0  0  0  0  0  0
   -6.4545   -3.6165    0.0000 C   0  0  0  0  0  0  0  0  0  0  0  0
   -7.1738    0.7289    0.0000 C   0  0  0  0  0  0  0  0  0  0  0  0
   -7.8883   -1.9784    0.0000 O   0  0  0  0  0  0  0  0  0  0  0  0
   -7.1736   -3.2072    0.0000 C   0  0  0  0  0  0  0  0  0  0  0  0
   -6.4545   -4.4359    0.0000 C   0  0  0  0  0  0  0  0  0  0  0  0
   -7.8883    1.1383    0.0000 C   0  0  0  0  0  0  0  0  0  0  0  0
   -7.1738   -0.0902    0.0000 O   0  0  0  0  0  0  0  0  0  0  0  0
   -7.8883   -3.6165    0.0000 O   0  0  0  0  0  0  0  0  0  0  0  0
   -7.8883    1.9576    0.0000 O   0  0  0  0  0  0  0  0  0  0  0  0
   -8.6112    0.7289    0.0000 C   0  0  0  0  0  0  0  0  0  0  0  0
   -7.8883   -0.4959    0.0000 C   0  0  0  0  0  0  0  0  0  0  0  0
   -9.3335    1.1383    0.0000 O   0  0  0  0  0  0  0  0  0  0  0  0
   -8.6112   -0.0902    0.0000 C   0  0  0  0  0  0  0  0  0  0  0  0
   -7.8883   -1.3150    0.0000 C   0  0  0  0  0  0  0  0  0  0  0  0
   -9.3335   -0.4959    0.0000 O   0  0  0  0  0  0  0  0  0  0  0  0
    0.7182    0.3301    0.0000 H   0  0  0  0  0  0  0  0  0  0  0  0
    0.0005    1.5553    0.0000 H   0  0  0  0  0  0  0  0  0  0  0  0
   -0.7173    0.3301    0.0000 H   0  0  0  0  0  0  0  0  0  0  0  0
    1.4322    1.5655    0.0000 H   0  0  0  0  0  0  0  0  0  0  0  0
    2.8675    1.5620    0.0000 H   0  0  0  0  0  0  0  0  0  0  0  0
   -4.2992   -0.9054    0.0000 H   0  0  0  0  0  0  0  0  0  0  0  0
   -5.0175   -2.8014    0.0000 H   0  0  0  0  0  0  0  0  0  0  0  0
   -6.4550    0.3232    0.0000 H   0  0  0  0  0  0  0  0  0  0  0  0
  2  1  1  1      
  2  3  1  0      
  2  4  1  0      
  2  5  1  0      
  3  6  1  0      
  3  7  1  0      
  3 73  1  6      
  4  8  1  0      
  4  9  1  0      
  4 76  1  6      
  5 10  1  0      
  6 11  1  0      
  6 12  1  0      
  6 74  1  1      
  7  8  1  0      
  8 13  1  0      
  8 77  1  6      
  9 14  1  0      
  9 15  2  0      
 10 11  1  0      
 11 16  1  0      
 11 75  1  6      
 12 17  1  0      
 13 15  1  0      
 15 18  1  0      
 16 19  1  1      
 16 20  1  0      
 16 21  1  0      
 17 20  2  0      
 18 22  1  0      
 20 23  1  0      
 21 24  1  0      
 22 25  1  0      
 23 26  1  0      
 24 26  1  0      
 25 27  1  0      
 25 28  1  1      
 26 29  1  1      
 27 30  1  0      
 29 31  1  0      
 32 30  1  1      
 31 33  1  0      
 31 34  1  0      
 31 78  1  6      
 32 35  1  0      
 32 36  1  0      
 33 37  1  6      
 33 38  1  0      
 34 39  1  0      
 35 40  1  0      
 36 41  1  6      
 36 42  1  0      
 37 43  1  0      
 38 44  1  1      
 38 45  1  0      
 39 45  1  0      
 39 46  1  1      
 40 47  1  1      
 40 48  1  0      
 42 48  1  0      
 42 49  1  1      
 43 50  1  0      
 43 51  1  0      
 43 79  1  1      
 45 52  1  6      
 46 53  1  0      
 47 54  1  0      
 48 55  1  6      
 50 56  1  1      
 50 57  1  0      
 51 58  1  0      
 52 59  1  0      
 57 60  1  1      
 57 61  1  0      
 58 61  1  0      
 58 62  1  1      
 59 63  1  0      
 59 64  1  0      
 59 80  1  1      
 61 65  1  6      
 63 66  1  1      
 63 67  1  0      
 64 68  1  0      
 67 69  1  1      
 67 70  1  0      
 68 70  1  0      
 68 71  1  1      
 70 72  1  6      
M  END

>  <RackCode>
HYCPK72335

>  <Cat. No.>
HY-N0686

>  <Product Name>
Pseudoprotodioscin

>  <ROW>
P

>  <COLUMN>
22

>  <CAS No.>
102115-79-7

>  <MWt>
1031.18

>  <Target>
Fatty Acid Synthase (FASN); MicroRNA

>  <Saltdate>


>  <Smiles>
C[C@@]1([C@](C(C)=C(CC[C@@H](C)CO[C@@H]([C@@H]([C@@H](O)[C@@H]2O)O)O[C@@H]2CO)O3)([H])[C@]3([H])C4)[C@]4([H])[C@@](CC=C5[C@@]6(CC[C@H](O[C@@](O[C@H](CO)[C@@H](O[C@@](O[C@@H](C)[C@H](O)[C@H]7O)([H])[C@@H]7O)[C@@H]8O)([H])[C@@H]8O[C@@](O[C@@H](C)[C@H](O)[C@H]9O)([H])[C@@H]9O)C5)C)([H])[C@]6([H])CC1

>  <Solvent>
DMSO Solution

>  <Batch No.>
218164

>  <Quantity>
10mM  * 50uL

>  <Pathway>
Epigenetics; Metabolic Enzyme/Protease

>  <Synonyms>


>  <Formula>
C51H82O21

>  <Research_Area>
Metabolic Disease

>  <Clinical_Information>
No Development Reported

>  <SUPPLIER>
MedChemExpress

$$$$
Untitled Document
  ChemDraw05101917262D

 27 28  0  0  0  0  0  0  0  0999 V2000
   -0.7145    1.6500    0.0000 O   0  0  0  0  0  0  0  0  0  0  0  0
   -0.7145    0.8250    0.0000 C   0  0  0  0  0  0  0  0  0  0  0  0
   -1.4289    0.4125    0.0000 C   0  0  0  0  0  0  0  0  0  0  0  0
   -1.4289   -0.4125    0.0000 C   0  0  0  0  0  0  0  0  0  0  0  0
   -2.1434   -0.8250    0.0000 C   0  0  0  0  0  0  0  0  0  0  0  0
   -2.8579   -0.4125    0.0000 C   0  0  0  0  0  0  0  0  0  0  0  0
   -3.5724   -0.8250    0.0000 C   0  0  0  0  0  0  0  0  0  0  0  0
   -4.2868   -0.4125    0.0000 C   0  0  0  0  0  0  0  0  0  0  0  0
   -4.2868    0.4125    0.0000 C   0  0  0  0  0  0  0  0  0  0  0  0
   -3.5724    0.8250    0.0000 C   0  0  0  0  0  0  0  0  0  0  0  0
   -2.8579    0.4125    0.0000 C   0  0  0  0  0  0  0  0  0  0  0  0
   -2.1434    0.8250    0.0000 C   0  0  0  0  0  0  0  0  0  0  0  0
    0.0000    0.4125    0.0000 C   0  0  0  0  0  0  0  0  0  0  0  0
    0.7145    0.8250    0.0000 C   0  0  0  0  0  0  0  0  0  0  0  0
    1.4289    0.4125    0.0000 N   0  0  0  0  0  0  0  0  0  0  0  0
    1.4289   -0.4125    0.0000 C   0  0  0  0  0  0  0  0  0  0  0  0
    2.1434   -0.8250    0.0000 C   0  0  0  0  0  0  0  0  0  0  0  0
    0.7145   -0.8250    0.0000 C   0  0  0  0  0  0  0  0  0  0  0  0
    2.1434    0.8250    0.0000 C   0  0  0  0  0  0  0  0  0  0  0  0
    2.8579    0.4125    0.0000 C   0  0  0  0  0  0  0  0  0  0  0  0
    3.5724    0.8250    0.0000 C   0  0  0  0  0  0  0  0  0  0  0  0
    4.2868    0.4125    0.0000 C   0  0  0  0  0  0  0  0  0  0  0  0
    4.2868   -0.4125    0.0000 C   0  0  0  0  0  0  0  0  0  0  0  0
    3.5724   -0.8250    0.0000 C   0  0  0  0  0  0  0  0  0  0  0  0
    2.8579   -0.4125    0.0000 C   0  0  0  0  0  0  0  0  0  0  0  0
   -0.4125   -1.6500    0.0000 H   0  0  0  0  0  0  0  0  0  0  0  0
    0.4125   -1.6500    0.0000 Cl  0  0  0  0  0  0  0  0  0  0  0  0
  1  2  2  0      
  2  3  1  0      
  3  4  2  0      
  4  5  1  0      
  5  6  2  0      
  6  7  1  0      
  7  8  2  0      
  8  9  1  0      
  9 10  2  0      
 10 11  1  0      
  6 11  1  0      
 11 12  2  0      
  3 12  1  0      
  2 13  1  0      
 13 14  1  0      
 14 15  1  0      
 15 16  1  0      
 16 17  1  0      
 16 18  1  0      
 15 19  1  0      
 19 20  1  0      
 20 21  2  0      
 21 22  1  0      
 22 23  2  0      
 23 24  1  0      
 24 25  2  0      
 20 25  1  0      
 26 27  1  0      
M  END

>  <RackCode>
HYCPK72336

>  <Cat. No.>
HY-12589

>  <Product Name>
ZM39923 (hydrochloride)

>  <ROW>
A

>  <COLUMN>
3

>  <CAS No.>
1021868-92-7

>  <MWt>
367.91

>  <Target>
JAK

>  <Saltdate>
Hydrochloride

>  <Smiles>
O=C(C1=CC=C2C=CC=CC2=C1)CCN(C(C)C)CC3=CC=CC=C3.[H]Cl

>  <Solvent>
DMSO Solution

>  <Batch No.>
17620

>  <Quantity>
10mM  * 50uL

>  <Pathway>
Epigenetics; JAK/STAT Signaling; Protein Tyrosine Kinase/RTK; Stem Cell/Wnt

>  <Synonyms>


>  <Formula>
C23H26ClNO

>  <Research_Area>
Cancer; Neurological Disease

>  <Clinical_Information>
No Development Reported

>  <SUPPLIER>
MedChemExpress

$$$$
Untitled Document
  ChemDraw06161614112D

 25 25  0  0  0  0  0  0  0  0999 V2000
   -3.9296    0.4125    0.0000 C   0  0  0  0  0  0  0  0  0  0  0  0
   -4.6441   -0.0000    0.0000 C   0  0  0  0  0  0  0  0  0  0  0  0
   -5.3585    0.4125    0.0000 C   0  0  0  0  0  0  0  0  0  0  0  0
   -6.0730   -0.0000    0.0000 C   0  0  0  0  0  0  0  0  0  0  0  0
   -6.0730   -0.8250    0.0000 C   0  0  0  0  0  0  0  0  0  0  0  0
   -5.3585   -1.2375    0.0000 C   0  0  0  0  0  0  0  0  0  0  0  0
   -4.6441   -0.8250    0.0000 C   0  0  0  0  0  0  0  0  0  0  0  0
   -3.9296    1.2375    0.0000 O   0  0  0  0  0  0  0  0  0  0  0  0
   -3.2151   -0.0000    0.0000 O   0  0  0  0  0  0  0  0  0  0  0  0
   -3.9296   -1.2375    0.0000 C   0  0  0  0  0  0  0  0  0  0  0  0
   -3.2151   -0.8250    0.0000 C   0  0  0  0  0  0  0  0  0  0  0  0
   -2.5006   -1.2375    0.0000 C   0  0  0  0  0  0  0  0  0  0  0  0
   -1.7862   -0.8250    0.0000 C   0  0  0  0  0  0  0  0  0  0  0  0
   -1.0717   -1.2375    0.0000 C   0  0  0  0  0  0  0  0  0  0  0  0
   -0.3572   -0.8250    0.0000 C   0  0  0  0  0  0  0  0  0  0  0  0
    0.3572   -1.2375    0.0000 C   0  0  0  0  0  0  0  0  0  0  0  0
    1.0717   -0.8250    0.0000 C   0  0  0  0  0  0  0  0  0  0  0  0
    1.7862   -1.2375    0.0000 C   0  0  0  0  0  0  0  0  0  0  0  0
    2.5006   -0.8250    0.0000 C   0  0  0  0  0  0  0  0  0  0  0  0
    3.2151   -1.2375    0.0000 C   0  0  0  0  0  0  0  0  0  0  0  0
    3.9296   -0.8250    0.0000 C   0  0  0  0  0  0  0  0  0  0  0  0
    4.6441   -1.2375    0.0000 C   0  0  0  0  0  0  0  0  0  0  0  0
    5.3585   -0.8250    0.0000 C   0  0  0  0  0  0  0  0  0  0  0  0
    6.0730   -1.2375    0.0000 C   0  0  0  0  0  0  0  0  0  0  0  0
   -5.3585    1.2375    0.0000 O   0  0  0  0  0  0  0  0  0  0  0  0
  1  2  1  0      
  2  3  1  0      
  3  4  2  0      
  4  5  1  0      
  5  6  2  0      
  6  7  1  0      
  2  7  2  0      
  1  8  2  0      
  1  9  1  0      
 10 11  1  0      
 11 12  1  0      
 12 13  1  0      
 13 14  1  0      
 14 15  1  0      
 15 16  1  0      
 16 17  1  0      
 17 18  1  0      
 18 19  1  0      
 19 20  1  0      
 20 21  1  0      
 21 22  1  0      
 22 23  1  0      
 23 24  1  0      
  7 10  1  0      
  3 25  1  0      
M  END

>  <RackCode>
HYCPK72336

>  <Cat. No.>
HY-N2020

>  <Product Name>
Anacardic Acid

>  <ROW>
B

>  <COLUMN>
3

>  <CAS No.>
16611-84-0

>  <MWt>
348.52

>  <Target>
Bacterial; Epigenetic Reader Domain; Histone Acetyltransferase

>  <Saltdate>
Free Acid

>  <Smiles>
O=C(O)C1=C(CCCCCCCCCCCCCCC)C=CC=C1O

>  <Solvent>
DMSO Solution

>  <Batch No.>
124583

>  <Quantity>
10mM  * 50uL

>  <Pathway>
Anti-infection; Epigenetics

>  <Synonyms>
Hydroginkgolic acid; Ginkgolic Acid C15:0

>  <Formula>
C22H36O3

>  <Research_Area>
Cancer

>  <Clinical_Information>
No Development Reported

>  <SUPPLIER>
MedChemExpress

$$$$
Untitled Document
  ChemDraw10221514052D

 24 26  0  0  0  0  0  0  0  0999 V2000
    2.1433   -0.5635    0.0000 C   0  0  0  0  0  0  0  0  0  0  0  0
    2.8578   -0.9760    0.0000 C   0  0  0  0  0  0  0  0  0  0  0  0
    3.5723   -0.5635    0.0000 C   0  0  0  0  0  0  0  0  0  0  0  0
    3.5723    0.2615    0.0000 C   0  0  0  0  0  0  0  0  0  0  0  0
    2.1433    0.2615    0.0000 O   0  0  0  0  0  0  0  0  0  0  0  0
    1.4289   -0.9760    0.0000 O   0  0  0  0  0  0  0  0  0  0  0  0
    4.2867   -0.9760    0.0000 C   0  0  0  0  0  0  0  0  0  0  0  0
   -3.5723    0.2615    0.0000 C   0  0  0  0  0  0  0  0  0  0  0  0
   -3.5723   -0.5635    0.0000 C   0  0  0  0  0  0  0  0  0  0  0  0
   -2.8578   -0.9760    0.0000 C   0  0  0  0  0  0  0  0  0  0  0  0
   -2.1433   -0.5635    0.0000 C   0  0  0  0  0  0  0  0  0  0  0  0
   -2.1433    0.2615    0.0000 C   0  0  0  0  0  0  0  0  0  0  0  0
   -2.8578    0.6740    0.0000 O   0  0  0  0  0  0  0  0  0  0  0  0
   -1.4289    0.6740    0.0000 C   0  0  0  0  0  0  0  0  0  0  0  0
   -0.7145    0.2615    0.0000 C   0  0  0  0  0  0  0  0  0  0  0  0
   -0.7145   -0.5635    0.0000 C   0  0  0  0  0  0  0  0  0  0  0  0
   -1.4289   -0.9760    0.0000 C   0  0  0  0  0  0  0  0  0  0  0  0
   -0.0000   -0.9760    0.0000 C   0  0  0  0  0  0  0  0  0  0  0  0
    0.7145   -0.5635    0.0000 C   0  0  0  0  0  0  0  0  0  0  0  0
    0.7145    0.2615    0.0000 C   0  0  0  0  0  0  0  0  0  0  0  0
   -0.0000    0.6740    0.0000 O   0  0  0  0  0  0  0  0  0  0  0  0
   -4.2867    0.6740    0.0000 O   0  0  0  0  0  0  0  0  0  0  0  0
    1.1270    0.9760    0.0000 C   0  0  0  0  0  0  0  0  0  0  0  0
    1.5395    0.2615    0.0000 C   0  0  0  0  0  0  0  0  0  0  0  0
  1  2  1  0      
  2  3  2  0      
  3  4  1  0      
  1  5  2  0      
  1  6  1  0      
  3  7  1  0      
  8  9  1  0      
  9 10  2  0      
 10 11  1  0      
 11 12  1  0      
 12 13  1  0      
  8 13  1  0      
 14 15  1  0      
 15 16  2  0      
 16 17  1  0      
 11 17  2  0      
 12 14  2  0      
 18 19  1  0      
 19 20  1  0      
 20 21  1  0      
 16 18  1  0      
 15 21  1  0      
  8 22  2  0      
 20 23  1  0      
 20 24  1  0      
 19  6  1  1      
M  END

>  <RackCode>
HYCPK72336

>  <Cat. No.>
HY-18981

>  <Product Name>
Decursin

>  <ROW>
C

>  <COLUMN>
3

>  <CAS No.>
5928-25-6

>  <MWt>
328.36

>  <Target>
Apoptosis; CXCR; PKC

>  <Saltdate>
Free Base

>  <Smiles>
C/C(C)=C\C(O[C@H](C(C)(C)O1)CC2=C1C=C(O3)C(C=CC3=O)=C2)=O

>  <Solvent>
DMSO Solution

>  <Batch No.>
204945

>  <Quantity>
10mM  * 50uL

>  <Pathway>
Apoptosis; Epigenetics; GPCR/G Protein; Immunology/Inflammation; TGF-beta/Smad

>  <Synonyms>
(+)-Decursin

>  <Formula>
C19H20O5

>  <Research_Area>
Cancer; Inflammation/Immunology; Neurological Disease

>  <Clinical_Information>
No Development Reported

>  <SUPPLIER>
MedChemExpress

$$$$
Untitled Document
  ChemDraw04011917152D

 25 27  0  0  0  0  0  0  0  0999 V2000
   -0.4433   -0.8250    0.0000 C   0  0  0  0  0  0  0  0  0  0  0  0
   -1.1578   -0.4125    0.0000 C   0  0  0  0  0  0  0  0  0  0  0  0
   -1.8723   -0.8250    0.0000 C   0  0  0  0  0  0  0  0  0  0  0  0
   -1.8723   -1.6500    0.0000 C   0  0  0  0  0  0  0  0  0  0  0  0
   -1.1578   -2.0625    0.0000 N   0  0  0  0  0  0  0  0  0  0  0  0
   -0.4433   -1.6500    0.0000 N   0  0  0  0  0  0  0  0  0  0  0  0
    0.3413   -0.5701    0.0000 C   0  0  0  0  0  0  0  0  0  0  0  0
    0.8262   -1.2375    0.0000 C   0  0  0  0  0  0  0  0  0  0  0  0
    0.3413   -1.9049    0.0000 C   0  0  0  0  0  0  0  0  0  0  0  0
   -2.5867   -0.4125    0.0000 C   0  0  0  0  0  0  0  0  0  0  0  0
   -2.5867    0.4125    0.0000 O   0  0  0  0  0  0  0  0  0  0  0  0
   -3.3012   -0.8250    0.0000 N   0  0  0  0  0  0  0  0  0  0  0  0
    1.6512   -1.2375    0.0000 C   0  0  0  0  0  0  0  0  0  0  0  0
    2.0637   -0.5230    0.0000 C   0  0  0  0  0  0  0  0  0  0  0  0
    2.8887   -0.5230    0.0000 C   0  0  0  0  0  0  0  0  0  0  0  0
    3.3012   -1.2375    0.0000 C   0  0  0  0  0  0  0  0  0  0  0  0
    2.8887   -1.9520    0.0000 C   0  0  0  0  0  0  0  0  0  0  0  0
    2.0637   -1.9520    0.0000 C   0  0  0  0  0  0  0  0  0  0  0  0
   -1.1578    0.4125    0.0000 N   0  0  0  0  0  0  0  0  0  0  0  0
    0.2711    0.4125    0.0000 C   0  0  0  0  0  0  0  0  0  0  0  0
   -0.4433    0.8250    0.0000 C   0  0  0  0  0  0  0  0  0  0  0  0
   -0.4433    1.6500    0.0000 C   0  0  0  0  0  0  0  0  0  0  0  0
    0.2711    2.0625    0.0000 C   0  0  0  0  0  0  0  0  0  0  0  0
   -1.1578    2.0625    0.0000 O   0  0  0  0  0  0  0  0  0  0  0  0
    0.9856    0.8250    0.0000 O   0  0  0  0  0  0  0  0  0  0  0  0
  1  2  1  0      
  2  3  2  0      
  3  4  1  0      
  4  5  2  0      
  5  6  1  0      
  1  6  1  0      
  7  8  1  0      
  8  9  2  0      
  6  9  1  0      
  1  7  2  0      
 10 11  2  0      
 10 12  1  0      
  3 10  1  0      
 13 14  1  0      
 14 15  2  0      
 15 16  1  0      
 16 17  2  0      
 17 18  1  0      
 13 18  2  0      
  8 13  1  0      
 20 21  1  0      
 21 22  1  0      
 22 23  1  0      
 22 24  1  6      
 20 25  1  0      
 21 19  1  1      
  2 19  1  0      
M  END

>  <RackCode>
HYCPK72336

>  <Cat. No.>
HY-111750

>  <Product Name>
JAK-IN-3

>  <ROW>
D

>  <COLUMN>
3

>  <CAS No.>
1400876-94-9

>  <MWt>
340.38

>  <Target>
JAK

>  <Saltdate>
Free Base

>  <Smiles>
O=C(C1=C(N[C@@H]([C@H](O)C)CO)C2=CC(C3=CC=CC=C3)=CN2N=C1)N

>  <Solvent>
DMSO Solution

>  <Batch No.>
253585

>  <Quantity>
10mM  * 50uL

>  <Pathway>
Epigenetics; JAK/STAT Signaling; Protein Tyrosine Kinase/RTK; Stem Cell/Wnt

>  <Synonyms>


>  <Formula>
C18H20N4O3

>  <Research_Area>
Inflammation/Immunology

>  <Clinical_Information>
No Development Reported

>  <SUPPLIER>
MedChemExpress

$$$$
Untitled Document
  ChemDraw08242315552D

 29 31  0  0  0  0  0  0  0  0999 V2000
    3.5723   -1.2375    0.0000 C   0  0  0  0  0  0  0  0  0  0  0  0
    2.8578   -1.6500    0.0000 C   0  0  0  0  0  0  0  0  0  0  0  0
    2.1433   -1.2375    0.0000 O   0  0  0  0  0  0  0  0  0  0  0  0
    1.4289   -1.6500    0.0000 C   0  0  0  0  0  0  0  0  0  0  0  0
    1.4289   -2.4749    0.0000 O   0  0  0  0  0  0  0  0  0  0  0  0
    0.7145   -1.2375    0.0000 C   0  0  0  0  0  0  0  0  0  0  0  0
    0.0000   -1.6500    0.0000 C   0  0  0  0  0  0  0  0  0  0  0  0
   -0.7145   -1.2375    0.0000 N   0  0  0  0  0  0  0  0  0  0  0  0
   -1.4289   -1.6500    0.0000 C   0  0  0  0  0  0  0  0  0  0  0  0
   -2.1433   -1.2375    0.0000 C   0  0  0  0  0  0  0  0  0  0  0  0
   -2.8578   -1.6500    0.0000 C   0  0  0  0  0  0  0  0  0  0  0  0
   -3.5723   -1.2375    0.0000 C   0  0  0  0  0  0  0  0  0  0  0  0
   -3.5723   -0.4125    0.0000 C   0  0  0  0  0  0  0  0  0  0  0  0
   -2.8578    0.0000    0.0000 C   0  0  0  0  0  0  0  0  0  0  0  0
   -2.1433   -0.4125    0.0000 C   0  0  0  0  0  0  0  0  0  0  0  0
   -0.7145   -0.4125    0.0000 C   0  0  0  0  0  0  0  0  0  0  0  0
    0.0000    0.0000    0.0000 C   0  0  0  0  0  0  0  0  0  0  0  0
    0.7145   -0.4125    0.0000 C   0  0  0  0  0  0  0  0  0  0  0  0
    1.4289    0.0000    0.0000 C   0  0  0  0  0  0  0  0  0  0  0  0
    1.4289    0.8250    0.0000 C   0  0  0  0  0  0  0  0  0  0  0  0
    2.1433    1.2375    0.0000 C   0  0  0  0  0  0  0  0  0  0  0  0
    2.8578    0.8250    0.0000 C   0  0  0  0  0  0  0  0  0  0  0  0
    2.8578    0.0000    0.0000 C   0  0  0  0  0  0  0  0  0  0  0  0
    2.1433   -0.4125    0.0000 C   0  0  0  0  0  0  0  0  0  0  0  0
    0.0000    0.8250    0.0000 C   0  0  0  0  0  0  0  0  0  0  0  0
    0.7145    1.2375    0.0000 O   0  0  0  0  0  0  0  0  0  0  0  0
   -0.7145    1.2375    0.0000 O   0  0  0  0  0  0  0  0  0  0  0  0
   -0.7145    2.0624    0.0000 C   0  0  0  0  0  0  0  0  0  0  0  0
   -1.4289    2.4749    0.0000 C   0  0  0  0  0  0  0  0  0  0  0  0
  1  2  1  0      
  2  3  1  0      
  3  4  1  0      
  4  5  2  0      
  4  6  1  0      
  6  7  2  0      
  7  8  1  0      
  8  9  1  0      
  9 10  1  0      
 10 11  2  0      
 11 12  1  0      
 12 13  2  0      
 13 14  1  0      
 14 15  2  0      
 10 15  1  0      
  8 16  1  0      
 16 17  2  0      
 17 18  1  0      
  6 18  1  0      
 18 19  1  0      
 19 20  2  0      
 20 21  1  0      
 21 22  2  0      
 22 23  1  0      
 23 24  2  0      
 19 24  1  0      
 17 25  1  0      
 25 26  2  0      
 25 27  1  0      
 27 28  1  0      
 28 29  1  0      
M  END

>  <RackCode>
HYCPK72336

>  <Cat. No.>
HY-W025074

>  <Product Name>
BML-278

>  <ROW>
E

>  <COLUMN>
3

>  <CAS No.>
120533-76-8

>  <MWt>
391.46

>  <Target>
Histone Methyltransferase; Sirtuin

>  <Saltdate>


>  <Smiles>
CCOC(C1=CN(C=C(C(OCC)=O)C1C2=CC=CC=C2)CC3=CC=CC=C3)=O

>  <Solvent>
DMSO Solution

>  <Batch No.>
311466

>  <Quantity>
10mM  * 50uL

>  <Pathway>
Cell Cycle/DNA Damage; Epigenetics

>  <Synonyms>


>  <Formula>
C24H25NO4

>  <Research_Area>
Cancer

>  <Clinical_Information>
No Development Reported

>  <SUPPLIER>
MedChemExpress

$$$$
Untitled Document
  ChemDraw08162310002D

 15 17  0  0  0  0  0  0  0  0999 V2000
    0.3572    1.4437    0.0000 C   0  0  0  0  0  0  0  0  0  0  0  0
    1.0717    1.8562    0.0000 C   0  0  0  0  0  0  0  0  0  0  0  0
    1.7861    1.4437    0.0000 C   0  0  0  0  0  0  0  0  0  0  0  0
    1.7861    0.6187    0.0000 C   0  0  0  0  0  0  0  0  0  0  0  0
    1.0717    0.2062    0.0000 C   0  0  0  0  0  0  0  0  0  0  0  0
    1.0717   -0.6188    0.0000 N   0  0  0  0  0  0  0  0  0  0  0  0
    0.3572   -1.0313    0.0000 C   0  0  0  0  0  0  0  0  0  0  0  0
   -0.3572   -0.6188    0.0000 C   0  0  0  0  0  0  0  0  0  0  0  0
   -1.0717   -1.0313    0.0000 C   0  0  0  0  0  0  0  0  0  0  0  0
   -1.7861   -0.6188    0.0000 C   0  0  0  0  0  0  0  0  0  0  0  0
   -1.7861    0.2062    0.0000 C   0  0  0  0  0  0  0  0  0  0  0  0
   -1.0717    0.6187    0.0000 C   0  0  0  0  0  0  0  0  0  0  0  0
   -0.3572    0.2062    0.0000 C   0  0  0  0  0  0  0  0  0  0  0  0
    0.3572    0.6187    0.0000 C   0  0  0  0  0  0  0  0  0  0  0  0
    0.3572   -1.8562    0.0000 O   0  0  0  0  0  0  0  0  0  0  0  0
  1  2  1  0      
  2  3  2  0      
  3  4  1  0      
  4  5  2  0      
  5  6  1  0      
  6  7  1  0      
  7  8  1  0      
  8  9  1  0      
  9 10  2  0      
 10 11  1  0      
 11 12  2  0      
 12 13  1  0      
  8 13  2  0      
 13 14  1  0      
  5 14  1  0      
  1 14  2  0      
  7 15  2  0      
M  END

>  <RackCode>
HYCPK72336

>  <Cat. No.>
HY-34386

>  <Product Name>
6(5H)-Phenanthridinone

>  <ROW>
F

>  <COLUMN>
3

>  <CAS No.>
1015-89-0

>  <MWt>
195.22

>  <Target>
PARP

>  <Saltdate>


>  <Smiles>
O=C1NC2=CC=CC=C2C3=C1C=CC=C3

>  <Solvent>
DMSO Solution

>  <Batch No.>
529903

>  <Quantity>
10mM  * 50uL

>  <Pathway>
Cell Cycle/DNA Damage; Epigenetics

>  <Synonyms>


>  <Formula>
C13H9NO

>  <Research_Area>
Cancer; Inflammation/Immunology

>  <Clinical_Information>
No Development Reported

>  <SUPPLIER>
MedChemExpress

$$$$
Untitled Document
  ChemDraw07031816422D

 37 42  0  0  0  0  0  0  0  0999 V2000
    0.6937   -1.5289    0.0000 N   0  0  0  0  0  0  0  0  0  0  0  0
   -0.0943   -1.2845    0.0000 C   0  0  0  0  0  0  0  0  0  0  0  0
   -0.1053   -0.4596    0.0000 C   0  0  0  0  0  0  0  0  0  0  0  0
    0.6758   -0.1942    0.0000 C   0  0  0  0  0  0  0  0  0  0  0  0
    1.0013    0.5639    0.0000 C   0  0  0  0  0  0  0  0  0  0  0  0
    1.8205    0.6611    0.0000 C   0  0  0  0  0  0  0  0  0  0  0  0
    2.3143    0.0002    0.0000 C   0  0  0  0  0  0  0  0  0  0  0  0
    1.9889   -0.7579    0.0000 C   0  0  0  0  0  0  0  0  0  0  0  0
    1.1696   -0.8551    0.0000 C   0  0  0  0  0  0  0  0  0  0  0  0
   -1.5231   -1.3036    0.0000 C   0  0  0  0  0  0  0  0  0  0  0  0
   -0.8032   -1.7065    0.0000 N   0  0  0  0  0  0  0  0  0  0  0  0
   -0.8253   -0.0567    0.0000 C   0  0  0  0  0  0  0  0  0  0  0  0
   -1.5341   -0.4787    0.0000 N   0  0  0  0  0  0  0  0  0  0  0  0
   -2.2320   -1.7257    0.0000 C   0  0  0  0  0  0  0  0  0  0  0  0
   -2.2209   -2.5506    0.0000 O   0  0  0  0  0  0  0  0  0  0  0  0
   -2.9519   -1.3228    0.0000 N   0  0  0  0  0  0  0  0  0  0  0  0
    2.1460    1.4192    0.0000 O   0  0  0  0  0  0  0  0  0  0  0  0
    1.6521    2.0801    0.0000 C   0  0  0  0  0  0  0  0  0  0  0  0
    4.4429   -0.1626    0.0000 O   0  0  0  0  0  0  0  0  0  0  0  0
    4.3457    0.6567    0.0000 N   0  0  0  0  0  0  0  0  0  0  0  0
    3.5365    0.8174    0.0000 C   0  0  0  0  0  0  0  0  0  0  0  0
    3.1336    0.0975    0.0000 C   0  0  0  0  0  0  0  0  0  0  0  0
    3.6938   -0.5082    0.0000 C   0  0  0  0  0  0  0  0  0  0  0  0
    3.5330   -1.3174    0.0000 C   0  0  0  0  0  0  0  0  0  0  0  0
    3.1909    1.5665    0.0000 C   0  0  0  0  0  0  0  0  0  0  0  0
   -0.8363    0.7682    0.0000 N   0  0  0  0  0  0  0  0  0  0  0  0
   -1.6534    1.9904    0.0000 N   0  0  0  0  0  0  0  0  0  0  0  0
   -2.4626    2.1511    0.0000 N   0  0  0  0  0  0  0  0  0  0  0  0
   -2.8655    1.4312    0.0000 C   0  0  0  0  0  0  0  0  0  0  0  0
   -2.3053    0.8255    0.0000 C   0  0  0  0  0  0  0  0  0  0  0  0
   -1.5562    1.1711    0.0000 C   0  0  0  0  0  0  0  0  0  0  0  0
   -1.0478    2.5506    0.0000 C   0  0  0  0  0  0  0  0  0  0  0  0
   -0.2598    2.3062    0.0000 C   0  0  0  0  0  0  0  0  0  0  0  0
   -3.6848    1.3340    0.0000 C   0  0  0  0  0  0  0  0  0  0  0  0
   -4.3457    0.8402    0.0000 C   0  0  0  0  0  0  0  0  0  0  0  0
   -4.4429    1.6594    0.0000 C   0  0  0  0  0  0  0  0  0  0  0  0
   -3.6583   -1.7433    0.0000 C   0  0  0  0  0  0  0  0  0  0  0  0
  1  2  1  0      
  2  3  1  0      
  3  4  1  0      
  4  5  1  0      
  5  6  2  0      
  6  7  1  0      
  7  8  2  0      
  8  9  1  0      
  1  9  1  0      
  4  9  2  0      
 10 11  1  0      
 12 13  1  0      
 10 13  2  0      
  2 11  2  0      
  3 12  2  0      
 14 15  2  0      
 14 16  1  0      
 10 14  1  0      
 17 18  1  0      
  6 17  1  0      
 19 20  1  0      
 20 21  2  0      
 21 22  1  0      
 22 23  2  0      
 19 23  1  0      
 23 24  1  0      
 21 25  1  0      
  7 22  1  0      
 27 28  1  0      
 28 29  2  0      
 29 30  1  0      
 30 31  2  0      
 27 31  1  0      
 32 33  1  0      
 27 32  1  0      
 34 35  1  0      
 35 36  1  0      
 34 36  1  0      
 29 34  1  0      
 26 31  1  0      
 12 26  1  0      
 16 37  1  0      
M  END

>  <RackCode>
HYCPK72336

>  <Cat. No.>
HY-112429

>  <Product Name>
HJB97

>  <ROW>
G

>  <COLUMN>
3

>  <CAS No.>
2093391-24-1

>  <MWt>
500.55

>  <Target>
Epigenetic Reader Domain

>  <Saltdate>
Free Base

>  <Smiles>
O=C(C1=NC(NC2=CC(C3CC3)=NN2CC)=C4C(NC5=C4C=C(OC)C(C6=C(C)ON=C6C)=C5)=N1)NC

>  <Solvent>
DMSO Solution

>  <Batch No.>
39166

>  <Quantity>
10mM  * 50uL

>  <Pathway>
Epigenetics

>  <Synonyms>


>  <Formula>
C26H28N8O3

>  <Research_Area>
Cancer

>  <Clinical_Information>
No Development Reported

>  <SUPPLIER>
MedChemExpress

$$$$
Untitled Document
  ChemDraw09131613392D

 15 17  0  0  0  0  0  0  0  0999 V2000
    0.7145   -0.2062    0.0000 C   0  0  0  0  0  0  0  0  0  0  0  0
    0.0000    0.2062    0.0000 C   0  0  0  0  0  0  0  0  0  0  0  0
    0.0000    1.0313    0.0000 C   0  0  0  0  0  0  0  0  0  0  0  0
    0.7145    1.4438    0.0000 C   0  0  0  0  0  0  0  0  0  0  0  0
    1.4289    1.0313    0.0000 C   0  0  0  0  0  0  0  0  0  0  0  0
    1.4289    0.2062    0.0000 O   0  0  0  0  0  0  0  0  0  0  0  0
    0.7145   -1.0313    0.0000 C   0  0  0  0  0  0  0  0  0  0  0  0
   -0.0000   -1.4438    0.0000 C   0  0  0  0  0  0  0  0  0  0  0  0
   -0.7145   -1.0313    0.0000 C   0  0  0  0  0  0  0  0  0  0  0  0
   -1.4289   -1.4438    0.0000 C   0  0  0  0  0  0  0  0  0  0  0  0
   -2.1434   -1.0313    0.0000 C   0  0  0  0  0  0  0  0  0  0  0  0
   -2.1434   -0.2062    0.0000 C   0  0  0  0  0  0  0  0  0  0  0  0
   -1.4289    0.2062    0.0000 C   0  0  0  0  0  0  0  0  0  0  0  0
   -0.7145   -0.2062    0.0000 C   0  0  0  0  0  0  0  0  0  0  0  0
    2.1434    1.4438    0.0000 O   0  0  0  0  0  0  0  0  0  0  0  0
  1  2  1  0      
  2  3  1  0      
  3  4  1  0      
  4  5  1  0      
  5  6  1  0      
  1  6  1  0      
  7  8  1  0      
  8  9  2  0      
  9 10  1  0      
 10 11  2  0      
 11 12  1  0      
 12 13  2  0      
 13 14  1  0      
  9 14  1  0      
  1  7  2  0      
  2 14  2  0      
  5 15  2  0      
M  END

>  <RackCode>
HYCPK72336

>  <Cat. No.>
HY-100585

>  <Product Name>
Splitomicin

>  <ROW>
H

>  <COLUMN>
3

>  <CAS No.>
5690-03-9

>  <MWt>
198.22

>  <Target>
HDAC

>  <Saltdate>
Free Base

>  <Smiles>
O=C1CCC2=C3C=CC=CC3=CC=C2O1

>  <Solvent>
DMSO Solution

>  <Batch No.>
84218

>  <Quantity>
10mM  * 50uL

>  <Pathway>
Cell Cycle/DNA Damage; Epigenetics

>  <Synonyms>
Splitomycin

>  <Formula>
C13H10O2

>  <Research_Area>
Cancer

>  <Clinical_Information>
No Development Reported

>  <SUPPLIER>
MedChemExpress

$$$$
Untitled Document
  ChemDraw11091611262D

 36 40  0  0  0  0  0  0  0  0999 V2000
    0.3572    0.2062    0.0000 N   0  0  0  0  0  0  0  0  0  0  0  0
    0.3572    1.0313    0.0000 C   0  0  0  0  0  0  0  0  0  0  0  0
    1.0717    1.4438    0.0000 C   0  0  0  0  0  0  0  0  0  0  0  0
    1.7862    1.0313    0.0000 C   0  0  0  0  0  0  0  0  0  0  0  0
    1.7862    0.2062    0.0000 C   0  0  0  0  0  0  0  0  0  0  0  0
    1.0717   -0.2062    0.0000 C   0  0  0  0  0  0  0  0  0  0  0  0
   -1.0717    0.2062    0.0000 C   0  0  0  0  0  0  0  0  0  0  0  0
   -0.3572   -0.2062    0.0000 C   0  0  0  0  0  0  0  0  0  0  0  0
   -1.0717    1.0313    0.0000 O   0  0  0  0  0  0  0  0  0  0  0  0
   -1.7862   -0.2062    0.0000 N   0  0  0  0  0  0  0  0  0  0  0  0
   -2.5006    0.2062    0.0000 C   0  0  0  0  0  0  0  0  0  0  0  0
   -3.2151   -0.2062    0.0000 C   0  0  0  0  0  0  0  0  0  0  0  0
   -3.9296    0.2062    0.0000 N   0  0  0  0  0  0  0  0  0  0  0  0
   -4.6441   -0.2062    0.0000 C   0  0  0  0  0  0  0  0  0  0  0  0
   -4.6441   -1.0313    0.0000 C   0  0  0  0  0  0  0  0  0  0  0  0
   -3.9296   -1.4437    0.0000 C   0  0  0  0  0  0  0  0  0  0  0  0
   -3.2151   -1.0313    0.0000 N   0  0  0  0  0  0  0  0  0  0  0  0
   -5.3585   -1.4437    0.0000 C   0  0  0  0  0  0  0  0  0  0  0  0
   -5.3585    0.2062    0.0000 C   0  0  0  0  0  0  0  0  0  0  0  0
   -6.0730   -0.2062    0.0000 C   0  0  0  0  0  0  0  0  0  0  0  0
   -6.0730   -1.0313    0.0000 O   0  0  0  0  0  0  0  0  0  0  0  0
   -3.9296   -2.2688    0.0000 O   0  0  0  0  0  0  0  0  0  0  0  0
    2.5006    1.4438    0.0000 C   0  0  0  0  0  0  0  0  0  0  0  0
    3.2151    1.0313    0.0000 C   0  0  0  0  0  0  0  0  0  0  0  0
    3.9296    1.4438    0.0000 C   0  0  0  0  0  0  0  0  0  0  0  0
    4.6441    1.0313    0.0000 C   0  0  0  0  0  0  0  0  0  0  0  0
    4.6441    0.2062    0.0000 C   0  0  0  0  0  0  0  0  0  0  0  0
    3.9296   -0.2062    0.0000 C   0  0  0  0  0  0  0  0  0  0  0  0
    3.2151    0.2062    0.0000 C   0  0  0  0  0  0  0  0  0  0  0  0
    2.5006    2.2688    0.0000 O   0  0  0  0  0  0  0  0  0  0  0  0
    5.3585   -0.2062    0.0000 O   0  0  0  0  0  0  0  0  0  0  0  0
    6.0730    0.2062    0.0000 C   0  0  0  0  0  0  0  0  0  0  0  0
   -1.7862   -1.0313    0.0000 C   0  0  0  0  0  0  0  0  0  0  0  0
   -1.0717   -1.4437    0.0000 C   0  0  0  0  0  0  0  0  0  0  0  0
   -0.2467   -1.4437    0.0000 C   0  0  0  0  0  0  0  0  0  0  0  0
   -0.6592   -2.1582    0.0000 C   0  0  0  0  0  0  0  0  0  0  0  0
  1  2  1  0      
  2  3  1  0      
  3  4  1  0      
  4  5  1  0      
  5  6  1  0      
  1  6  1  0      
  7  8  1  0      
  7  9  2  0      
  7 10  1  0      
  1  8  1  0      
 12 13  2  0      
 13 14  1  0      
 14 15  2  0      
 15 16  1  0      
 16 17  1  0      
 12 17  1  0      
 19 20  1  0      
 20 21  1  0      
 18 21  1  0      
 14 19  1  0      
 15 18  1  0      
 16 22  2  0      
 11 12  1  0      
 10 11  1  0      
 23 24  1  0      
 24 25  1  0      
 25 26  2  0      
 26 27  1  0      
 27 28  2  0      
 28 29  1  0      
 24 29  2  0      
 23 30  2  0      
 31 32  1  0      
 27 31  1  0      
  4 23  1  0      
 34 35  1  0      
 35 36  1  0      
 34 36  1  0      
 33 34  1  0      
 10 33  1  0      
M  END

>  <RackCode>
HYCPK72336

>  <Cat. No.>
HY-13990

>  <Product Name>
NVP-TNKS656

>  <ROW>
I

>  <COLUMN>
3

>  <CAS No.>
1419949-20-4

>  <MWt>
494.58

>  <Target>
Apoptosis; PARP

>  <Saltdate>
Free Base

>  <Smiles>
O=C(N(CC1CC1)CC2=NC3=C(COCC3)C(N2)=O)CN4CCC(C(C5=CC=C(OC)C=C5)=O)CC4

>  <Solvent>
DMSO Solution

>  <Batch No.>
13130

>  <Quantity>
10mM  * 50uL

>  <Pathway>
Apoptosis; Cell Cycle/DNA Damage; Epigenetics

>  <Synonyms>
TNKS656

>  <Formula>
C27H34N4O5

>  <Research_Area>
Cancer

>  <Clinical_Information>
No Development Reported

>  <SUPPLIER>
MedChemExpress

$$$$
Untitled Document
  ChemDraw08081710472D

 34 37  0  0  0  0  0  0  0  0999 V2000
   -1.5210    1.5220    0.0000 C   0  0  0  0  0  0  0  0  0  0  0  0
   -0.8091    1.1109    0.0000 C   0  0  0  0  0  0  0  0  0  0  0  0
   -0.0971    1.5220    0.0000 C   0  0  0  0  0  0  0  0  0  0  0  0
   -0.0971    2.3441    0.0000 C   0  0  0  0  0  0  0  0  0  0  0  0
   -0.8091    2.7552    0.0000 C   0  0  0  0  0  0  0  0  0  0  0  0
   -1.5210    2.3441    0.0000 C   0  0  0  0  0  0  0  0  0  0  0  0
   -2.2330    1.1109    0.0000 C   0  0  0  0  0  0  0  0  0  0  0  0
   -2.2330    0.2887    0.0000 N   0  0  0  0  0  0  0  0  0  0  0  0
   -2.9450   -0.1223    0.0000 C   0  0  0  0  0  0  0  0  0  0  0  0
   -2.9450   -0.9445    0.0000 C   0  0  0  0  0  0  0  0  0  0  0  0
   -3.6570    0.2887    0.0000 O   0  0  0  0  0  0  0  0  0  0  0  0
   -2.2330   -1.3555    0.0000 C   0  0  0  0  0  0  0  0  0  0  0  0
   -2.2330   -2.1777    0.0000 C   0  0  0  0  0  0  0  0  0  0  0  0
   -2.9450   -2.5887    0.0000 C   0  0  0  0  0  0  0  0  0  0  0  0
   -3.6570   -2.1777    0.0000 C   0  0  0  0  0  0  0  0  0  0  0  0
   -3.6570   -1.3555    0.0000 C   0  0  0  0  0  0  0  0  0  0  0  0
   -1.5210   -2.5887    0.0000 N   0  0  0  0  0  0  0  0  0  0  0  0
   -0.8091   -2.1777    0.0000 C   0  0  0  0  0  0  0  0  0  0  0  0
   -0.0971   -2.5887    0.0000 C   0  0  0  0  0  0  0  0  0  0  0  0
    0.6540   -2.2543    0.0000 N   0  0  0  0  0  0  0  0  0  0  0  0
    1.2041   -2.8653    0.0000 C   0  0  0  0  0  0  0  0  0  0  0  0
    0.7930   -3.5773    0.0000 N   0  0  0  0  0  0  0  0  0  0  0  0
   -0.0111   -3.4064    0.0000 N   0  0  0  0  0  0  0  0  0  0  0  0
    2.0217   -2.7794    0.0000 C   0  0  0  0  0  0  0  0  0  0  0  0
    2.3561   -2.0283    0.0000 C   0  0  0  0  0  0  0  0  0  0  0  0
    3.1738   -1.9424    0.0000 C   0  0  0  0  0  0  0  0  0  0  0  0
    3.6570   -2.6075    0.0000 N   0  0  0  0  0  0  0  0  0  0  0  0
    3.3226   -3.3586    0.0000 C   0  0  0  0  0  0  0  0  0  0  0  0
    2.5050   -3.4445    0.0000 C   0  0  0  0  0  0  0  0  0  0  0  0
   -2.2330    2.7552    0.0000 C   0  0  0  0  0  0  0  0  0  0  0  0
   -2.9450    3.1662    0.0000 F   0  0  0  0  0  0  0  0  0  0  0  0
   -2.2330    3.5773    0.0000 F   0  0  0  0  0  0  0  0  0  0  0  0
   -2.9450    2.3441    0.0000 F   0  0  0  0  0  0  0  0  0  0  0  0
    0.8249   -1.4502    0.0000 C   0  0  0  0  0  0  0  0  0  0  0  0
  1  2  2  0      
  2  3  1  0      
  3  4  2  0      
  4  5  1  0      
  5  6  2  0      
  6  1  1  0      
  6 30  1  0      
  1  7  1  0      
  7  8  1  0      
  8  9  1  0      
  9 10  1  0      
  9 11  2  0      
 10 12  2  0      
 12 13  1  0      
 13 14  2  0      
 14 15  1  0      
 15 16  2  0      
 16 10  1  0      
 13 17  1  0      
 17 18  1  0      
 18 19  1  0      
 19 20  1  0      
 20 21  1  0      
 21 22  2  0      
 22 23  1  0      
 23 19  2  0      
 20 34  1  0      
 21 24  1  0      
 24 25  2  0      
 25 26  1  0      
 26 27  2  0      
 27 28  1  0      
 28 29  2  0      
 29 24  1  0      
 30 31  1  0      
 30 32  1  0      
 30 33  1  0      
M  END

>  <RackCode>
HYCPK72336

>  <Cat. No.>
HY-103045

>  <Product Name>
CMPD101

>  <ROW>
J

>  <COLUMN>
3

>  <CAS No.>
865608-11-3

>  <MWt>
466.46

>  <Target>
PKC; ROCK

>  <Saltdate>


>  <Smiles>
O=C(C1=CC(NCC2=NN=C(C3=CC=NC=C3)N2C)=CC=C1)NCC4=CC=CC=C4C(F)(F)F

>  <Solvent>
DMSO Solution

>  <Batch No.>
120119

>  <Quantity>
10mM  * 50uL

>  <Pathway>
Cell Cycle/DNA Damage; Cytoskeleton; Epigenetics; Stem Cell/Wnt; TGF-beta/Smad

>  <Synonyms>


>  <Formula>
C24H21F3N6O

>  <Research_Area>
Cardiovascular Disease

>  <Clinical_Information>
No Development Reported

>  <SUPPLIER>
MedChemExpress

$$$$
Untitled Document
  ChemDraw10221514142D

 36 43  0  0  0  0  0  0  0  0999 V2000
   -0.4125   -0.4724    0.0000 C   0  0  0  0  0  0  0  0  0  0  0  0
   -0.8250   -1.1869    0.0000 C   0  0  0  0  0  0  0  0  0  0  0  0
   -0.4125   -1.9014    0.0000 C   0  0  0  0  0  0  0  0  0  0  0  0
    0.4125   -1.9014    0.0000 C   0  0  0  0  0  0  0  0  0  0  0  0
    0.8250   -1.1869    0.0000 C   0  0  0  0  0  0  0  0  0  0  0  0
    0.4125   -0.4724    0.0000 C   0  0  0  0  0  0  0  0  0  0  0  0
   -0.9645    0.1407    0.0000 N   0  0  0  0  0  0  0  0  0  0  0  0
   -1.7182   -0.1949    0.0000 C   0  0  0  0  0  0  0  0  0  0  0  0
   -1.6320   -1.0154    0.0000 C   0  0  0  0  0  0  0  0  0  0  0  0
    1.6320   -1.0154    0.0000 C   0  0  0  0  0  0  0  0  0  0  0  0
    1.7182   -0.1949    0.0000 C   0  0  0  0  0  0  0  0  0  0  0  0
    0.9645    0.1407    0.0000 N   0  0  0  0  0  0  0  0  0  0  0  0
   -0.6674   -2.6860    0.0000 C   0  0  0  0  0  0  0  0  0  0  0  0
    0.0000   -3.1709    0.0000 N   0  0  0  0  0  0  0  0  0  0  0  0
    0.6674   -2.6860    0.0000 C   0  0  0  0  0  0  0  0  0  0  0  0
   -1.4521   -2.9409    0.0000 O   0  0  0  0  0  0  0  0  0  0  0  0
   -2.4719    0.1407    0.0000 C   0  0  0  0  0  0  0  0  0  0  0  0
   -3.1393   -0.3443    0.0000 C   0  0  0  0  0  0  0  0  0  0  0  0
   -3.0531   -1.1647    0.0000 C   0  0  0  0  0  0  0  0  0  0  0  0
   -2.2994   -1.5003    0.0000 C   0  0  0  0  0  0  0  0  0  0  0  0
    2.2994   -1.5003    0.0000 C   0  0  0  0  0  0  0  0  0  0  0  0
    3.0531   -1.1647    0.0000 C   0  0  0  0  0  0  0  0  0  0  0  0
    3.1393   -0.3443    0.0000 C   0  0  0  0  0  0  0  0  0  0  0  0
    2.4719    0.1407    0.0000 C   0  0  0  0  0  0  0  0  0  0  0  0
   -0.9645    0.9657    0.0000 C   0  0  0  0  0  0  0  0  0  0  0  0
    0.9645    0.9657    0.0000 C   0  0  0  0  0  0  0  0  0  0  0  0
   -0.2501    1.3782    0.0000 O   0  0  0  0  0  0  0  0  0  0  0  0
   -0.9645    1.7907    0.0000 C   0  0  0  0  0  0  0  0  0  0  0  0
    0.9645    1.7907    0.0000 C   0  0  0  0  0  0  0  0  0  0  0  0
   -1.7614    1.1792    0.0000 H   0  0  0  0  0  0  0  0  0  0  0  0
    1.7895    0.9657    0.0000 C   0  0  0  0  0  0  0  0  0  0  0  0
    1.5479    2.3740    0.0000 C   0  0  0  0  0  0  0  0  0  0  0  0
    2.3448    2.1605    0.0000 O   0  0  0  0  0  0  0  0  0  0  0  0
    2.9281    2.7439    0.0000 C   0  0  0  0  0  0  0  0  0  0  0  0
    1.3344    3.1709    0.0000 O   0  0  0  0  0  0  0  0  0  0  0  0
    0.5520    2.5051    0.0000 O   0  0  0  0  0  0  0  0  0  0  0  0
  1  2  2  0      
  2  3  1  0      
  3  4  2  0      
  4  5  1  0      
  5  6  2  0      
  6  1  1  0      
  1  7  1  0      
  7  8  1  0      
  8  9  2  0      
  9  2  1  0      
  5 10  1  0      
 10 11  2  0      
 11 12  1  0      
 12  6  1  0      
  3 13  1  0      
 13 14  1  0      
 14 15  1  0      
 15  4  1  0      
 13 16  2  0      
  8 17  1  0      
 17 18  2  0      
 18 19  1  0      
 19 20  2  0      
 20  9  1  0      
 10 21  1  0      
 21 22  2  0      
 22 23  1  0      
 23 24  2  0      
 24 11  1  0      
  7 25  1  0      
 12 26  1  0      
 25 27  1  0      
 26 27  1  0      
 25 28  1  0      
 26 29  1  0      
 28 29  1  0      
 25 30  1  6      
 26 31  1  6      
 29 32  1  0      
 32 33  1  0      
 33 34  1  0      
 32 35  2  0      
 29 36  1  1      
M  END

>  <RackCode>
HYCPK72336

>  <Cat. No.>
HY-N6732

>  <Product Name>
K-252a

>  <ROW>
K

>  <COLUMN>
3

>  <CAS No.>
99533-80-9

>  <MWt>
467.47

>  <Target>
Antibiotic; Autophagy; CaMK; PKA; PKC; Trk Receptor

>  <Saltdate>
Free Base

>  <Smiles>
O=C(NC1)C2=C1C3=C4C5=C2C6=C(C=CC=C6)N5[C@](C[C@]7(O)C(OC)=O)([H])O[C@]7(C)N4C8=C3C=CC=C8

>  <Solvent>
DMSO Solution

>  <Batch No.>
315790

>  <Quantity>
10mM  * 50uL

>  <Pathway>
Anti-infection; Autophagy; Epigenetics; Neuronal Signaling; Protein Tyrosine Kinase/RTK; Stem Cell/Wnt; TGF-beta/Smad

>  <Synonyms>
SF2370; Antibiotic K 252a; Antibiotic SF 2370

>  <Formula>
C27H21N3O5

>  <Research_Area>
Infection; Inflammation/Immunology

>  <Clinical_Information>
No Development Reported

>  <SUPPLIER>
MedChemExpress

$$$$
Untitled Document
  ChemDraw05101917262D

 20 22  0  0  0  0  0  0  0  0999 V2000
    0.0797   -2.6812    0.0000 O   0  5  0  0  0  0  0  0  0  0  0  0
   -0.6348   -2.2687    0.0000 N   0  3  0  0  0  0  0  0  0  0  0  0
   -1.3492   -2.6812    0.0000 C   0  0  0  0  0  0  0  0  0  0  0  0
   -2.0637   -2.2687    0.0000 C   0  0  0  0  0  0  0  0  0  0  0  0
   -2.0637   -1.4437    0.0000 C   0  0  0  0  0  0  0  0  0  0  0  0
   -1.3492   -1.0313    0.0000 C   0  0  0  0  0  0  0  0  0  0  0  0
   -0.6348   -1.4438    0.0000 C   0  0  0  0  0  0  0  0  0  0  0  0
    0.0797   -1.0313    0.0000 S   0  0  0  0  0  0  0  0  0  0  0  0
    0.0797   -0.2062    0.0000 C   0  0  0  0  0  0  0  0  0  0  0  0
   -0.6348    0.2062    0.0000 C   0  0  0  0  0  0  0  0  0  0  0  0
   -0.6348    1.0312    0.0000 C   0  0  0  0  0  0  0  0  0  0  0  0
    0.0797    1.4438    0.0000 C   0  0  0  0  0  0  0  0  0  0  0  0
    0.0797    2.2687    0.0000 N   0  3  0  0  0  0  0  0  0  0  0  0
   -0.6348    2.6812    0.0000 O   0  5  0  0  0  0  0  0  0  0  0  0
    0.7942    2.6812    0.0000 O   0  0  0  0  0  0  0  0  0  0  0  0
    0.7942    1.0312    0.0000 C   0  0  0  0  0  0  0  0  0  0  0  0
    1.5788    1.2862    0.0000 N   0  0  0  0  0  0  0  0  0  0  0  0
    2.0637    0.6188    0.0000 O   0  0  0  0  0  0  0  0  0  0  0  0
    1.5788   -0.0487    0.0000 N   0  0  0  0  0  0  0  0  0  0  0  0
    0.7942    0.2062    0.0000 C   0  0  0  0  0  0  0  0  0  0  0  0
  1  2  1  0      
  2  3  2  0      
  3  4  1  0      
  4  5  2  0      
  5  6  1  0      
  6  7  2  0      
  2  7  1  0      
  7  8  1  0      
  8  9  1  0      
  9 10  2  0      
 10 11  1  0      
 11 12  2  0      
 12 13  1  0      
 13 14  1  0      
 13 15  2  0      
 12 16  1  0      
 16 17  2  0      
 17 18  1  0      
 18 19  1  0      
 19 20  2  0      
 16 20  1  0      
  9 20  1  0      
M  CHG  4   1  -1   2   1  13   1  14  -1
M  END

>  <RackCode>
HYCPK72336

>  <Cat. No.>
HY-101084

>  <Product Name>
NSC 228155

>  <ROW>
L

>  <COLUMN>
3

>  <CAS No.>
113104-25-9

>  <MWt>
290.25

>  <Target>
EGFR; Epigenetic Reader Domain; Histone Acetyltransferase

>  <Saltdate>
Free Base

>  <Smiles>
[O-][N+]1=CC=CC=C1SC2=CC=C([N+]([O-])=O)C3=NON=C32

>  <Solvent>
DMSO Solution

>  <Batch No.>
39191

>  <Quantity>
10mM  * 50uL

>  <Pathway>
Epigenetics; JAK/STAT Signaling; Protein Tyrosine Kinase/RTK

>  <Synonyms>


>  <Formula>
C11H6N4O4S

>  <Research_Area>
Cancer

>  <Clinical_Information>
No Development Reported

>  <SUPPLIER>
MedChemExpress

$$$$
Untitled Document
  ChemDraw06252214422D

 19 21  0  0  0  0  0  0  0  0999 V2000
   -0.5057    0.4996    0.0000 C   0  0  0  0  0  0  0  0  0  0  0  0
   -0.5057   -0.3254    0.0000 N   0  0  0  0  0  0  0  0  0  0  0  0
    0.2088   -0.7379    0.0000 N   0  0  0  0  0  0  0  0  0  0  0  0
    0.9233   -0.3254    0.0000 C   0  0  0  0  0  0  0  0  0  0  0  0
    0.9233    0.4996    0.0000 C   0  0  0  0  0  0  0  0  0  0  0  0
    1.6377    0.9121    0.0000 C   0  0  0  0  0  0  0  0  0  0  0  0
    1.6377    1.7371    0.0000 C   0  0  0  0  0  0  0  0  0  0  0  0
    0.9233    2.1496    0.0000 C   0  0  0  0  0  0  0  0  0  0  0  0
    0.2088    1.7371    0.0000 C   0  0  0  0  0  0  0  0  0  0  0  0
    0.2088    0.9121    0.0000 C   0  0  0  0  0  0  0  0  0  0  0  0
   -1.7752    0.0871    0.0000 N   0  0  0  0  0  0  0  0  0  0  0  0
   -1.2903    0.7545    0.0000 N   0  0  0  0  0  0  0  0  0  0  0  0
   -1.2903   -0.5803    0.0000 C   0  0  0  0  0  0  0  0  0  0  0  0
   -1.5452   -1.3650    0.0000 C   0  0  0  0  0  0  0  0  0  0  0  0
   -1.8002   -2.1496    0.0000 F   0  0  0  0  0  0  0  0  0  0  0  0
   -0.9932   -1.9781    0.0000 F   0  0  0  0  0  0  0  0  0  0  0  0
   -2.3522   -1.5365    0.0000 F   0  0  0  0  0  0  0  0  0  0  0  0
    1.6377   -0.7379    0.0000 N   0  0  0  0  0  0  0  0  0  0  0  0
    2.3522   -0.3254    0.0000 N   0  0  0  0  0  0  0  0  0  0  0  0
  1  2  1  0      
  2  3  1  0      
  3  4  2  0      
  4  5  1  0      
  5  6  1  0      
  6  7  2  0      
  7  8  1  0      
  8  9  2  0      
  9 10  1  0      
  1 10  1  0      
  5 10  2  0      
 11 12  1  0      
 11 13  2  0      
 12  1  2  0      
 13  2  1  0      
 14 15  1  0      
 14 16  1  0      
 14 17  1  0      
 13 14  1  0      
 18 19  1  0      
  4 18  1  0      
M  END

>  <RackCode>
HYCPK72336

>  <Cat. No.>
HY-147895

>  <Product Name>
PCAF-IN-2

>  <ROW>
M

>  <COLUMN>
3

>  <CAS No.>
56173-05-8

>  <MWt>
268.20

>  <Target>
Apoptosis; Histone Acetyltransferase

>  <Saltdate>


>  <Smiles>
FC(C1=NN=C2N1N=C(NN)C3=C2C=CC=C3)(F)F

>  <Solvent>
DMSO Solution

>  <Batch No.>
257864

>  <Quantity>
10mM  * 50uL

>  <Pathway>
Apoptosis; Epigenetics

>  <Synonyms>


>  <Formula>
C10H7F3N6

>  <Research_Area>
Cancer

>  <Clinical_Information>
No Development Reported

>  <SUPPLIER>
MedChemExpress

$$$$
Untitled Document
  ChemDraw08311613352D

 28 30  0  0  0  0  0  0  0  0999 V2000
    0.7942    1.6500    0.0000 C   0  0  0  0  0  0  0  0  0  0  0  0
    1.5086    1.2375    0.0000 N   0  0  0  0  0  0  0  0  0  0  0  0
    0.7942    2.4750    0.0000 O   0  0  0  0  0  0  0  0  0  0  0  0
    0.0797    1.2375    0.0000 O   0  0  0  0  0  0  0  0  0  0  0  0
    2.2231    0.0000    0.0000 C   0  0  0  0  0  0  0  0  0  0  0  0
    1.5086    0.4125    0.0000 C   0  0  0  0  0  0  0  0  0  0  0  0
    0.7942    0.0000    0.0000 C   0  0  0  0  0  0  0  0  0  0  0  0
    0.7942   -0.8250    0.0000 C   0  0  0  0  0  0  0  0  0  0  0  0
    1.5086   -1.2375    0.0000 N   0  0  0  0  0  0  0  0  0  0  0  0
    2.2231   -0.8250    0.0000 N   0  0  0  0  0  0  0  0  0  0  0  0
    3.4926   -0.4125    0.0000 N   0  0  0  0  0  0  0  0  0  0  0  0
    3.0077    0.2549    0.0000 N   0  0  0  0  0  0  0  0  0  0  0  0
    3.0077   -1.0799    0.0000 C   0  0  0  0  0  0  0  0  0  0  0  0
    0.0797   -1.2375    0.0000 C   0  0  0  0  0  0  0  0  0  0  0  0
   -0.6348   -0.8250    0.0000 C   0  0  0  0  0  0  0  0  0  0  0  0
   -1.3492   -1.2375    0.0000 C   0  0  0  0  0  0  0  0  0  0  0  0
   -1.3492   -2.0625    0.0000 C   0  0  0  0  0  0  0  0  0  0  0  0
   -0.6348   -2.4750    0.0000 C   0  0  0  0  0  0  0  0  0  0  0  0
    0.0797   -2.0625    0.0000 C   0  0  0  0  0  0  0  0  0  0  0  0
   -2.7782   -1.2375    0.0000 S   0  0  0  0  0  0  0  0  0  0  0  0
   -3.1906   -0.5230    0.0000 O   0  0  0  0  0  0  0  0  0  0  0  0
   -2.3657   -1.9520    0.0000 O   0  0  0  0  0  0  0  0  0  0  0  0
   -2.0637   -0.8250    0.0000 N   0  0  0  0  0  0  0  0  0  0  0  0
   -3.4926   -1.6500    0.0000 C   0  0  0  0  0  0  0  0  0  0  0  0
   -2.0637   -2.4750    0.0000 C   0  0  0  0  0  0  0  0  0  0  0  0
    3.2626   -1.8646    0.0000 C   0  0  0  0  0  0  0  0  0  0  0  0
   -0.6348    1.6500    0.0000 C   0  0  0  0  0  0  0  0  0  0  0  0
   -1.3492    1.2375    0.0000 C   0  0  0  0  0  0  0  0  0  0  0  0
  1  2  1  0      
  1  3  2  0      
  1  4  1  0      
  5  6  1  0      
  6  7  2  0      
  7  8  1  0      
  8  9  2  0      
  9 10  1  0      
  5 10  1  0      
 11 12  1  0      
 11 13  2  0      
 10 13  1  0      
  5 12  2  0      
 14 15  1  0      
 15 16  2  0      
 16 17  1  0      
 17 18  2  0      
 18 19  1  0      
 14 19  2  0      
 20 21  2  0      
 20 22  2  0      
 20 23  1  0      
 20 24  1  0      
 16 23  1  0      
 17 25  1  0      
  8 14  1  0      
 13 26  1  0      
  2  6  1  0      
 27 28  1  0      
  4 27  1  0      
M  END

>  <RackCode>
HYCPK72336

>  <Cat. No.>
HY-15815

>  <Product Name>
Bromosporine

>  <ROW>
N

>  <COLUMN>
3

>  <CAS No.>
1619994-69-2

>  <MWt>
404.44

>  <Target>
Apoptosis; CDK; Epigenetic Reader Domain; HIV

>  <Saltdate>
Free Base

>  <Smiles>
O=C(OCC)NC1=CC(C2=CC=C(C)C(NS(=O)(C)=O)=C2)=NN3C1=NN=C3C

>  <Solvent>
DMSO Solution

>  <Batch No.>
158381

>  <Quantity>
10mM  * 50uL

>  <Pathway>
Anti-infection; Apoptosis; Cell Cycle/DNA Damage; Epigenetics

>  <Synonyms>


>  <Formula>
C17H20N6O4S

>  <Research_Area>
Cancer

>  <Clinical_Information>
No Development Reported

>  <SUPPLIER>
MedChemExpress

$$$$
Untitled Document
  ChemDraw06082211072D

 18 20  0  0  0  0  0  0  0  0999 V2000
    1.3455    2.4760    0.0000 C   0  0  0  0  0  0  0  0  0  0  0  0
    1.3467    1.6510    0.0000 C   0  0  0  0  0  0  0  0  0  0  0  0
    2.0617    1.2395    0.0000 C   0  0  0  0  0  0  0  0  0  0  0  0
    0.6328    1.2375    0.0000 O   0  0  0  0  0  0  0  0  0  0  0  0
    0.6339    0.4125    0.0000 C   0  0  0  0  0  0  0  0  0  0  0  0
   -0.0800   -0.0010    0.0000 C   0  0  0  0  0  0  0  0  0  0  0  0
   -0.0788   -0.8260    0.0000 C   0  0  0  0  0  0  0  0  0  0  0  0
    0.6362   -1.2375    0.0000 C   0  0  0  0  0  0  0  0  0  0  0  0
    1.3501   -0.8240    0.0000 C   0  0  0  0  0  0  0  0  0  0  0  0
    1.3490    0.0010    0.0000 C   0  0  0  0  0  0  0  0  0  0  0  0
    0.6373   -2.0625    0.0000 C   0  0  0  0  0  0  0  0  0  0  0  0
    1.3524   -2.4740    0.0000 O   0  0  0  0  0  0  0  0  0  0  0  0
   -0.0766   -2.4760    0.0000 N   0  0  0  0  0  0  0  0  0  0  0  0
   -0.7916   -2.0645    0.0000 C   0  0  0  0  0  0  0  0  0  0  0  0
   -0.7927   -1.2395    0.0000 C   0  0  0  0  0  0  0  0  0  0  0  0
   -1.5777   -0.9856    0.0000 C   0  0  0  0  0  0  0  0  0  0  0  0
   -2.0617   -1.6537    0.0000 C   0  0  0  0  0  0  0  0  0  0  0  0
   -1.5759   -2.3205    0.0000 S   0  0  0  0  0  0  0  0  0  0  0  0
  1  2  1  0      
  2  3  1  0      
  2  4  1  0      
  4  5  1  0      
  5  6  2  0      
  6  7  1  0      
  7  8  2  0      
  8  9  1  0      
  9 10  2  0      
  5 10  1  0      
  8 11  1  0      
 11 12  2  0      
 11 13  1  0      
 13 14  1  0      
 14 15  2  0      
  7 15  1  0      
 15 16  1  0      
 16 17  2  0      
 17 18  1  0      
 14 18  1  0      
M  END

>  <RackCode>
HYCPK72336

>  <Cat. No.>
HY-143338

>  <Product Name>
ART-IN-1

>  <ROW>
O

>  <COLUMN>
3

>  <CAS No.>
2418014-98-7

>  <MWt>
259.32

>  <Target>
PARP

>  <Saltdate>


>  <Smiles>
CC(OC1=CC2=C(C(NC3=C2C=CS3)=O)C=C1)C

>  <Solvent>
DMSO Solution

>  <Batch No.>
322389

>  <Quantity>
10mM  * 50uL

>  <Pathway>
Cell Cycle/DNA Damage; Epigenetics

>  <Synonyms>


>  <Formula>
C14H13NO2S

>  <Research_Area>
Cancer

>  <Clinical_Information>
No Development Reported

>  <SUPPLIER>
MedChemExpress

$$$$
Untitled Document
  ChemDraw03181614152D

 27 28  0  0  0  0  0  0  0  0999 V2000
   -1.0717   -1.2375    0.0000 C   0  0  0  0  0  0  0  0  0  0  0  0
   -1.7862   -1.6500    0.0000 C   0  0  0  0  0  0  0  0  0  0  0  0
   -2.5006   -1.2375    0.0000 C   0  0  0  0  0  0  0  0  0  0  0  0
   -2.5006   -0.4125    0.0000 C   0  0  0  0  0  0  0  0  0  0  0  0
   -1.0717   -0.4125    0.0000 O   0  0  0  0  0  0  0  0  0  0  0  0
   -0.3572   -1.6500    0.0000 O   0  0  0  0  0  0  0  0  0  0  0  0
   -3.2151   -1.6500    0.0000 C   0  0  0  0  0  0  0  0  0  0  0  0
    0.3572   -1.2375    0.0000 C   0  0  0  0  0  0  0  0  0  0  0  0
    1.0717   -1.6500    0.0000 C   0  0  0  0  0  0  0  0  0  0  0  0
    1.7862   -1.2375    0.0000 C   0  0  0  0  0  0  0  0  0  0  0  0
    2.5006   -1.6500    0.0000 C   0  0  0  0  0  0  0  0  0  0  0  0
    2.5006   -2.4750    0.0000 C   0  0  0  0  0  0  0  0  0  0  0  0
    3.2151   -1.2375    0.0000 C   0  0  0  0  0  0  0  0  0  0  0  0
    1.0717    0.0000    0.0000 C   0  0  0  0  0  0  0  0  0  0  0  0
    0.3572   -0.4125    0.0000 C   0  0  0  0  0  0  0  0  0  0  0  0
   -0.3572    0.0000    0.0000 C   0  0  0  0  0  0  0  0  0  0  0  0
   -0.3572    0.8250    0.0000 C   0  0  0  0  0  0  0  0  0  0  0  0
    0.3572    1.2375    0.0000 C   0  0  0  0  0  0  0  0  0  0  0  0
    0.3572    2.0625    0.0000 C   0  0  0  0  0  0  0  0  0  0  0  0
    1.0717    2.4750    0.0000 C   0  0  0  0  0  0  0  0  0  0  0  0
    1.7862    2.0625    0.0000 C   0  0  0  0  0  0  0  0  0  0  0  0
    1.7862    1.2375    0.0000 C   0  0  0  0  0  0  0  0  0  0  0  0
    1.0717    0.8250    0.0000 C   0  0  0  0  0  0  0  0  0  0  0  0
   -1.0717    1.2375    0.0000 O   0  0  0  0  0  0  0  0  0  0  0  0
    1.7862   -0.4125    0.0000 O   0  0  0  0  0  0  0  0  0  0  0  0
    2.5006    0.8250    0.0000 O   0  0  0  0  0  0  0  0  0  0  0  0
   -0.3572    2.4750    0.0000 O   0  0  0  0  0  0  0  0  0  0  0  0
  1  2  1  0      
  2  3  2  0      
  3  4  1  0      
  1  5  2  0      
  1  6  1  0      
  3  7  1  0      
  8  9  1  0      
  9 10  1  0      
 10 11  2  0      
 11 12  1  0      
 11 13  1  0      
 14 15  1  0      
 15 16  2  0      
 16 17  1  0      
 17 18  1  0      
 18 19  1  0      
 19 20  2  0      
 20 21  1  0      
 21 22  2  0      
 22 23  1  0      
 14 23  1  0      
 18 23  2  0      
 17 24  2  0      
 14 25  2  0      
 22 26  1  0      
 19 27  1  0      
  8 15  1  6      
  6  8  1  0      
M  END

>  <RackCode>
HYCPK72336

>  <Cat. No.>
HY-N5112A

>  <Product Name>
¦Â,¦Â-Dimethylacrylalkannin

>  <ROW>
P

>  <COLUMN>
3

>  <CAS No.>
34539-65-6

>  <MWt>
370.40

>  <Target>
HIF/HIF Prolyl-Hydroxylase

>  <Saltdate>
Free Base

>  <Smiles>
C/C(C)=C\C(O[C@H](C(C1=O)=CC(C2=C1C(O)=CC=C2O)=O)C/C=C(C)\C)=O

>  <Solvent>
DMSO Solution

>  <Batch No.>
113135

>  <Quantity>
10mM  * 50uL

>  <Pathway>
Metabolic Enzyme/Protease

>  <Synonyms>
Arnebin 1

>  <Formula>
C21H22O6

>  <Research_Area>
Others

>  <Clinical_Information>
No Development Reported

>  <SUPPLIER>
MedChemExpress

$$$$
Untitled Document
  ChemDraw01132209372D

 40 44  0  0  0  0  0  0  0  0999 V2000
    3.2473    1.7894    0.0000 N   0  0  0  0  0  0  0  0  0  0  0  0
   -3.3301    2.7862    0.0000 C   0  0  0  0  0  0  0  0  0  0  0  0
   -3.3301    1.9669    0.0000 C   0  0  0  0  0  0  0  0  0  0  0  0
   -2.6139    1.5543    0.0000 C   0  0  0  0  0  0  0  0  0  0  0  0
   -1.9036    1.9669    0.0000 C   0  0  0  0  0  0  0  0  0  0  0  0
   -1.9036    2.7862    0.0000 C   0  0  0  0  0  0  0  0  0  0  0  0
   -2.6139    3.1987    0.0000 C   0  0  0  0  0  0  0  0  0  0  0  0
   -4.0406    1.5543    0.0000 F   0  0  0  0  0  0  0  0  0  0  0  0
   -1.1302    3.0898    0.0000 C   0  0  0  0  0  0  0  0  0  0  0  0
   -0.8895    3.8806    0.0000 C   0  0  0  0  0  0  0  0  0  0  0  0
   -1.3535    4.5623    0.0000 C   0  0  0  0  0  0  0  0  0  0  0  0
   -2.1786    4.6197    0.0000 N   0  0  0  0  0  0  0  0  0  0  0  0
   -2.7401    4.0181    0.0000 C   0  0  0  0  0  0  0  0  0  0  0  0
   -3.5249    4.2587    0.0000 O   0  0  0  0  0  0  0  0  0  0  0  0
   -1.1186    1.7091    0.0000 N   0  0  0  0  0  0  0  0  0  0  0  0
   -0.6317    2.3793    0.0000 C   0  0  0  0  0  0  0  0  0  0  0  0
    0.1934    2.3679    0.0000 C   0  0  0  0  0  0  0  0  0  0  0  0
    0.5945    1.6519    0.0000 C   0  0  0  0  0  0  0  0  0  0  0  0
    1.4195    1.6519    0.0000 C   0  0  0  0  0  0  0  0  0  0  0  0
    1.8435    2.3679    0.0000 C   0  0  0  0  0  0  0  0  0  0  0  0
    1.4195    3.0898    0.0000 C   0  0  0  0  0  0  0  0  0  0  0  0
    0.5945    3.0898    0.0000 C   0  0  0  0  0  0  0  0  0  0  0  0
    2.6629    2.3679    0.0000 C   0  0  0  0  0  0  0  0  0  0  0  0
    4.0406    2.0061    0.0000 C   0  0  0  0  0  0  0  0  0  0  0  0
   -0.6782   -2.1448    0.0000 C   0  0  0  0  0  0  0  0  0  0  0  0
    0.0363   -2.5572    0.0000 C   0  0  0  0  0  0  0  0  0  0  0  0
    0.0363   -3.3822    0.0000 C   0  0  0  0  0  0  0  0  0  0  0  0
   -0.6782   -3.7947    0.0000 C   0  0  0  0  0  0  0  0  0  0  0  0
   -1.3926   -3.3822    0.0000 C   0  0  0  0  0  0  0  0  0  0  0  0
   -1.3926   -2.5572    0.0000 C   0  0  0  0  0  0  0  0  0  0  0  0
   -1.0137   -2.9701    0.0000 C   0  0  0  0  0  0  0  0  0  0  0  0
   -0.6782   -1.3198    0.0000 C   0  0  0  0  0  0  0  0  0  0  0  0
   -1.3926   -0.9073    0.0000 S   0  0  0  0  0  0  0  0  0  0  0  0
   -0.9801   -0.1928    0.0000 O   0  0  0  0  0  0  0  0  0  0  0  0
   -1.8051   -1.6218    0.0000 O   0  0  0  0  0  0  0  0  0  0  0  0
   -2.1070   -0.4948    0.0000 O   0  0  0  0  0  0  0  0  0  0  0  0
    0.7507   -2.1448    0.0000 O   0  0  0  0  0  0  0  0  0  0  0  0
   -1.7282   -3.3826    0.0000 C   0  0  0  0  0  0  0  0  0  0  0  0
   -1.7282   -2.5576    0.0000 C   0  0  0  0  0  0  0  0  0  0  0  0
   -0.6782   -4.6197    0.0000 H   0  0  0  0  0  0  0  0  0  0  0  0
  3  8  1  0      
  6  9  1  0      
  9 10  1  0      
 10 11  1  0      
 11 12  1  0      
 12 13  1  0      
 13  7  1  0      
 13 14  2  0      
  5 15  1  0      
 15 16  1  0      
 16  9  2  0      
 16 17  1  0      
 17 18  1  0      
 18 19  2  0      
 19 20  1  0      
 20 21  2  0      
 21 22  1  0      
 22 17  2  0      
 20 23  1  0      
  2  3  2  0      
  3  4  1  0      
  4  5  2  0      
  5  6  1  0      
  6  7  2  0      
  7  2  1  0      
 23  1  1  0      
  1 24  1  0      
 25 26  1  0      
 26 27  1  0      
 27 28  1  0      
 28 29  1  0      
 29 30  1  0      
 25 30  1  0      
 25 31  1  6      
 28 31  1  6      
 33 34  2  0      
 33 35  2  0      
 33 36  1  0      
 32 33  1  0      
 25 32  1  0      
 26 37  2  0      
 31 38  1  0      
 31 39  1  0      
 28 40  1  0      
M  END

>  <RackCode>
HYCPK72336

>  <Cat. No.>
HY-102003

>  <Product Name>
Rucaparib (monocamsylate)

>  <ROW>
A

>  <COLUMN>
4

>  <CAS No.>
1859053-21-6

>  <MWt>
555.66

>  <Target>
PARP

>  <Saltdate>
Camsylate

>  <Smiles>
FC1=CC2=C3C(CCNC2=O)=C(C4=CC=C(CNC)C=C4)NC3=C1.O=S(C[C@@]5(C6(C)C)C(C[C@@]6([H])CC5)=O)(O)=O

>  <Solvent>
DMSO Solution

>  <Batch No.>
40967

>  <Quantity>
10mM  * 50uL

>  <Pathway>
Cell Cycle/DNA Damage; Epigenetics

>  <Synonyms>
AG014699 (monocamsylate); PF-01367338 (monocamsylate)

>  <Formula>
C29H34FN3O5S

>  <Research_Area>
Cancer

>  <Clinical_Information>
Launched

>  <SUPPLIER>
MedChemExpress

$$$$
Untitled Document
  ChemDraw05101917272D

 33 37  0  0  0  0  0  0  0  0999 V2000
   -2.6420    2.7217    0.0000 O   0  0  0  0  0  0  0  0  0  0  0  0
   -3.4670    2.7217    0.0000 S   0  0  0  0  0  0  0  0  0  0  0  0
   -3.4670    1.8967    0.0000 C   0  0  0  0  0  0  0  0  0  0  0  0
   -2.7525    1.4842    0.0000 C   0  0  0  0  0  0  0  0  0  0  0  0
   -2.7525    0.6592    0.0000 C   0  0  0  0  0  0  0  0  0  0  0  0
   -3.4670    0.2467    0.0000 C   0  0  0  0  0  0  0  0  0  0  0  0
   -3.4670   -0.5783    0.0000 C   0  0  0  0  0  0  0  0  0  0  0  0
   -4.1815   -0.9908    0.0000 C   0  0  0  0  0  0  0  0  0  0  0  0
   -4.1815   -1.8158    0.0000 C   0  0  0  0  0  0  0  0  0  0  0  0
   -3.4670   -2.2283    0.0000 C   0  0  0  0  0  0  0  0  0  0  0  0
   -2.7525   -1.8158    0.0000 N   0  0  0  0  0  0  0  0  0  0  0  0
   -2.7525   -0.9908    0.0000 C   0  0  0  0  0  0  0  0  0  0  0  0
   -1.9679   -0.7359    0.0000 N   0  0  0  0  0  0  0  0  0  0  0  0
   -1.4830   -1.4033    0.0000 C   0  0  0  0  0  0  0  0  0  0  0  0
   -0.6580   -1.4033    0.0000 N   0  0  0  0  0  0  0  0  0  0  0  0
   -0.2455   -2.1178    0.0000 C   0  0  0  0  0  0  0  0  0  0  0  0
   -0.6580   -2.8322    0.0000 C   0  0  0  0  0  0  0  0  0  0  0  0
   -0.2455   -3.5467    0.0000 C   0  0  0  0  0  0  0  0  0  0  0  0
    0.5795   -3.5467    0.0000 C   0  0  0  0  0  0  0  0  0  0  0  0
    0.9920   -2.8322    0.0000 C   0  0  0  0  0  0  0  0  0  0  0  0
    1.8170   -2.8322    0.0000 N   0  0  0  0  0  0  0  0  0  0  0  0
    2.2295   -2.1178    0.0000 C   0  0  0  0  0  0  0  0  0  0  0  0
    3.0545   -2.1178    0.0000 C   0  0  0  0  0  0  0  0  0  0  0  0
    3.4670   -2.8322    0.0000 N   0  0  0  0  0  0  0  0  0  0  0  0
    4.2920   -2.8322    0.0000 C   0  0  0  0  0  0  0  0  0  0  0  0
    3.0545   -3.5467    0.0000 C   0  0  0  0  0  0  0  0  0  0  0  0
    2.2295   -3.5467    0.0000 C   0  0  0  0  0  0  0  0  0  0  0  0
    0.5795   -2.1178    0.0000 C   0  0  0  0  0  0  0  0  0  0  0  0
   -1.9679   -2.0707    0.0000 N   0  0  0  0  0  0  0  0  0  0  0  0
   -4.1815    0.6592    0.0000 C   0  0  0  0  0  0  0  0  0  0  0  0
   -4.1815    1.4842    0.0000 C   0  0  0  0  0  0  0  0  0  0  0  0
   -3.4670    3.5467    0.0000 C   0  0  0  0  0  0  0  0  0  0  0  0
   -4.2920    2.7217    0.0000 O   0  0  0  0  0  0  0  0  0  0  0  0
  1  2  2  0      
  2  3  1  0      
  3  4  2  0      
  4  5  1  0      
  5  6  2  0      
  6  7  1  0      
  7  8  2  0      
  8  9  1  0      
  9 10  2  0      
 10 11  1  0      
 11 12  1  0      
  7 12  1  0      
 12 13  2  0      
 13 14  1  0      
 14 15  1  0      
 15 16  1  0      
 16 17  2  0      
 17 18  1  0      
 18 19  2  0      
 19 20  1  0      
 20 21  1  0      
 21 22  1  0      
 22 23  1  0      
 23 24  1  0      
 24 25  1  0      
 24 26  1  0      
 26 27  1  0      
 21 27  1  0      
 20 28  2  0      
 16 28  1  0      
 14 29  2  0      
 11 29  1  0      
  6 30  1  0      
 30 31  2  0      
  3 31  1  0      
  2 32  1  0      
  2 33  2  0      
M  END

>  <RackCode>
HYCPK72336

>  <Cat. No.>
HY-15343

>  <Product Name>
CEP-33779

>  <ROW>
B

>  <COLUMN>
4

>  <CAS No.>
1257704-57-6

>  <MWt>
462.57

>  <Target>
JAK

>  <Saltdate>
Free Base

>  <Smiles>
O=S(C1=CC=C(C2=CC=CN3C2=NC(NC4=CC=CC(N5CCN(C)CC5)=C4)=N3)C=C1)(C)=O

>  <Solvent>
DMSO Solution

>  <Batch No.>
16103

>  <Quantity>
10mM  * 50uL

>  <Pathway>
Epigenetics; JAK/STAT Signaling; Protein Tyrosine Kinase/RTK; Stem Cell/Wnt

>  <Synonyms>


>  <Formula>
C24H26N6O2S

>  <Research_Area>
Cancer

>  <Clinical_Information>
No Development Reported

>  <SUPPLIER>
MedChemExpress

$$$$
Untitled Document
  ChemDraw09301714172D

 39 43  0  0  0  0  0  0  0  0999 V2000
    1.7858    3.1779    0.0000 C   0  0  0  0  0  0  0  0  0  0  0  0
    1.0714    3.5904    0.0000 N   0  0  0  0  0  0  0  0  0  0  0  0
    0.3569    3.1779    0.0000 N   0  0  0  0  0  0  0  0  0  0  0  0
    0.3569    2.3529    0.0000 C   0  0  0  0  0  0  0  0  0  0  0  0
    1.0714    1.9404    0.0000 C   0  0  0  0  0  0  0  0  0  0  0  0
    1.0714    1.1154    0.0000 C   0  0  0  0  0  0  0  0  0  0  0  0
    1.7858    0.7029    0.0000 C   0  0  0  0  0  0  0  0  0  0  0  0
    2.5003    1.1154    0.0000 C   0  0  0  0  0  0  0  0  0  0  0  0
    2.5003    1.9404    0.0000 C   0  0  0  0  0  0  0  0  0  0  0  0
    1.7858    2.3529    0.0000 C   0  0  0  0  0  0  0  0  0  0  0  0
   -0.3572    1.9397    0.0000 C   0  0  0  0  0  0  0  0  0  0  0  0
   -0.3569    1.1147    0.0000 C   0  0  0  0  0  0  0  0  0  0  0  0
    0.3574    0.7020    0.0000 N   0  0  0  0  0  0  0  0  0  0  0  0
    2.5003    3.5904    0.0000 O   0  0  0  0  0  0  0  0  0  0  0  0
   -1.1579    3.1727    0.0000 N   0  0  0  0  0  0  0  0  0  0  0  0
   -1.9648    3.3442    0.0000 N   0  0  0  0  0  0  0  0  0  0  0  0
   -2.3773    2.6298    0.0000 C   0  0  0  0  0  0  0  0  0  0  0  0
   -1.8253    2.0167    0.0000 N   0  0  0  0  0  0  0  0  0  0  0  0
   -1.0716    2.3522    0.0000 C   0  0  0  0  0  0  0  0  0  0  0  0
   -0.5448    3.7247    0.0000 C   0  0  0  0  0  0  0  0  0  0  0  0
   -1.0714    0.7022    0.0000 C   0  0  0  0  0  0  0  0  0  0  0  0
   -1.0714   -0.1228    0.0000 C   0  0  0  0  0  0  0  0  0  0  0  0
   -1.7858   -0.5353    0.0000 C   0  0  0  0  0  0  0  0  0  0  0  0
   -2.5003   -0.1228    0.0000 C   0  0  0  0  0  0  0  0  0  0  0  0
   -2.5003    0.7022    0.0000 C   0  0  0  0  0  0  0  0  0  0  0  0
   -1.7858    1.1147    0.0000 C   0  0  0  0  0  0  0  0  0  0  0  0
   -3.2148   -0.5353    0.0000 F   0  0  0  0  0  0  0  0  0  0  0  0
    3.2148    0.7029    0.0000 F   0  0  0  0  0  0  0  0  0  0  0  0
    0.3572   -2.4872    0.0000 C   0  0  0  0  0  0  0  0  0  0  0  0
    0.3572   -3.3122    0.0000 C   0  0  0  0  0  0  0  0  0  0  0  0
   -0.3572   -3.7247    0.0000 C   0  0  0  0  0  0  0  0  0  0  0  0
   -1.0717   -3.3122    0.0000 C   0  0  0  0  0  0  0  0  0  0  0  0
   -1.0717   -2.4872    0.0000 C   0  0  0  0  0  0  0  0  0  0  0  0
   -0.3572   -2.0747    0.0000 C   0  0  0  0  0  0  0  0  0  0  0  0
    1.0717   -2.0747    0.0000 S   0  0  0  0  0  0  0  0  0  0  0  0
    1.4842   -2.7892    0.0000 O   0  0  0  0  0  0  0  0  0  0  0  0
    0.6592   -1.3603    0.0000 O   0  0  0  0  0  0  0  0  0  0  0  0
    1.7862   -1.6622    0.0000 O   0  0  0  0  0  0  0  0  0  0  0  0
   -1.7862   -3.7247    0.0000 C   0  0  0  0  0  0  0  0  0  0  0  0
  1  2  1  0      
  2  3  1  0      
  3  4  2  0      
  4  5  1  0      
  5  6  1  0      
  6  7  2  0      
  7  8  1  0      
  8  9  2  0      
  9 10  1  0      
  1 10  1  0      
  5 10  2  0      
 11 12  1  0      
 12 13  1  0      
  4 11  1  0      
  6 13  1  0      
  1 14  2  0      
 15 16  1  0      
 16 17  2  0      
 17 18  1  0      
 18 19  2  0      
 15 19  1  0      
 15 20  1  0      
 11 19  1  1      
 21 22  1  0      
 22 23  2  0      
 23 24  1  0      
 24 25  2  0      
 25 26  1  0      
 21 26  2  0      
 24 27  1  0      
 12 21  1  6      
  8 28  1  0      
 29 30  1  0      
 30 31  2  0      
 31 32  1  0      
 32 33  2  0      
 33 34  1  0      
 29 34  2  0      
 35 36  2  0      
 35 37  2  0      
 35 38  1  0      
 29 35  1  0      
 32 39  1  0      
M  END

>  <RackCode>
HYCPK72336

>  <Cat. No.>
HY-108413

>  <Product Name>
Talazoparib tosylate

>  <ROW>
C

>  <COLUMN>
4

>  <CAS No.>
1373431-65-2

>  <MWt>
552.55

>  <Target>
PARP

>  <Saltdate>
Tosylate

>  <Smiles>
O=C1NN=C2C3=C1C=C(F)C=C3N[C@H](C4=CC=C(F)C=C4)[C@H]2C5=NC=NN5C.O=S(C6=CC=C(C)C=C6)(O)=O

>  <Solvent>
DMSO Solution

>  <Batch No.>
507274

>  <Quantity>
10mM  * 50uL

>  <Pathway>
Cell Cycle/DNA Damage; Epigenetics

>  <Synonyms>
BMN 673ts

>  <Formula>
C26H22F2N6O4S

>  <Research_Area>
Cancer

>  <Clinical_Information>
Launched

>  <SUPPLIER>
MedChemExpress

$$$$
Untitled Document
  ChemDraw07061810022D

 39 40  0  0  0  0  0  0  0  0999 V2000
   -4.2776    2.7364    0.0000 N   0  0  0  0  0  0  0  0  0  0  0  0
   -4.1911    1.9130    0.0000 C   0  0  0  0  0  0  0  0  0  0  0  0
   -3.4348    1.5763    0.0000 N   0  0  0  0  0  0  0  0  0  0  0  0
   -2.7651    2.0630    0.0000 C   0  0  0  0  0  0  0  0  0  0  0  0
   -2.8516    2.8862    0.0000 C   0  0  0  0  0  0  0  0  0  0  0  0
   -3.6079    3.2229    0.0000 C   0  0  0  0  0  0  0  0  0  0  0  0
   -1.9553    1.8908    0.0000 N   0  0  0  0  0  0  0  0  0  0  0  0
   -1.5414    2.6077    0.0000 C   0  0  0  0  0  0  0  0  0  0  0  0
   -2.0953    3.2229    0.0000 N   0  0  0  0  0  0  0  0  0  0  0  0
   -3.6941    4.0434    0.0000 N   0  0  0  0  0  0  0  0  0  0  0  0
   -1.6198    1.1372    0.0000 C   0  0  0  0  0  0  0  0  0  0  0  0
   -2.0337    0.4202    0.0000 C   0  0  0  0  0  0  0  0  0  0  0  0
   -1.4798   -0.1950    0.0000 C   0  0  0  0  0  0  0  0  0  0  0  0
   -0.7235    0.1417    0.0000 C   0  0  0  0  0  0  0  0  0  0  0  0
   -0.8100    0.9651    0.0000 O   0  0  0  0  0  0  0  0  0  0  0  0
   -2.8541    0.3340    0.0000 O   0  0  0  0  0  0  0  0  0  0  0  0
   -1.6513   -1.0020    0.0000 O   0  0  0  0  0  0  0  0  0  0  0  0
   -0.0090   -0.2708    0.0000 C   0  0  0  0  0  0  0  0  0  0  0  0
    0.7054    0.1417    0.0000 N   0  0  0  0  0  0  0  0  0  0  0  0
    0.7054    0.9667    0.0000 C   0  0  0  0  0  0  0  0  0  0  0  0
    1.4199    1.3792    0.0000 C   0  0  0  0  0  0  0  0  0  0  0  0
    1.4199    2.2041    0.0000 C   0  0  0  0  0  0  0  0  0  0  0  0
    2.1343    2.6167    0.0000 N   0  0  0  0  0  0  0  0  0  0  0  0
    2.8487    2.2041    0.0000 C   0  0  0  0  0  0  0  0  0  0  0  0
    2.1343    3.4416    0.0000 C   0  0  0  0  0  0  0  0  0  0  0  0
    1.4199   -0.2708    0.0000 C   0  0  0  0  0  0  0  0  0  0  0  0
    2.1343    0.1417    0.0000 C   0  0  0  0  0  0  0  0  0  0  0  0
    2.8487   -0.2708    0.0000 C   0  0  0  0  0  0  0  0  0  0  0  0
    3.5632    0.1417    0.0000 C   0  0  0  0  0  0  0  0  0  0  0  0
    2.8487   -1.0957    0.0000 N   0  0  0  0  0  0  0  0  0  0  0  0
    3.5632    0.9667    0.0000 O   0  0  0  0  0  0  0  0  0  0  0  0
    4.2776   -0.2708    0.0000 O   0  0  0  0  0  0  0  0  0  0  0  0
   -0.8401   -3.2184    0.0000 C   0  0  0  0  0  0  0  0  0  0  0  0
   -0.1257   -2.8059    0.0000 C   0  0  0  0  0  0  0  0  0  0  0  0
    0.5888   -3.2184    0.0000 O   0  0  0  0  0  0  0  0  0  0  0  0
   -0.1257   -1.9809    0.0000 O   0  0  0  0  0  0  0  0  0  0  0  0
   -1.5546   -2.8059    0.0000 F   0  0  0  0  0  0  0  0  0  0  0  0
   -0.8401   -4.0434    0.0000 F   0  0  0  0  0  0  0  0  0  0  0  0
   -1.5546   -3.6309    0.0000 F   0  0  0  0  0  0  0  0  0  0  0  0
  1  2  2  0      
  2  3  1  0      
  3  4  2  0      
  4  5  1  0      
  5  6  2  0      
  6  1  1  0      
  4  7  1  0      
  7  8  1  0      
  8  9  2  0      
  9  5  1  0      
  6 10  1  0      
 11  7  1  6      
 11 12  1  0      
 12 13  1  0      
 13 14  1  0      
 14 15  1  0      
 15 11  1  0      
 12 16  1  1      
 13 17  1  1      
 14 18  1  6      
 18 19  1  0      
 19 20  1  0      
 20 21  1  0      
 21 22  1  0      
 22 23  1  0      
 23 24  1  0      
 23 25  1  0      
 19 26  1  0      
 26 27  1  0      
 27 28  1  0      
 28 29  1  0      
 28 30  1  1      
 29 31  2  0      
 29 32  1  0      
 33 34  1  0      
 34 35  1  0      
 34 36  2  0      
 33 37  1  0      
 33 38  1  0      
 33 39  1  0      
M  END

>  <RackCode>
HYCPK72336

>  <Cat. No.>
HY-104009A

>  <Product Name>
GSK2807 (Trifluoroacetate)

>  <ROW>
D

>  <COLUMN>
4

>  <CAS No.>
2245255-66-5

>  <MWt>
566.53

>  <Target>
Histone Methyltransferase

>  <Saltdate>
Trifluoroacetate

>  <Smiles>
NC1=C2C(N([C@H]3[C@H](O)[C@H](O)[C@@H](CN(CC[C@H](N)C(O)=O)CCCN(C)C)O3)C=N2)=NC=N1.OC(C(F)(F)F)=O

>  <Solvent>
DMSO Solution

>  <Batch No.>
236822

>  <Quantity>
10mM  * 50uL

>  <Pathway>
Epigenetics

>  <Synonyms>


>  <Formula>
C21H33F3N8O7

>  <Research_Area>
Others

>  <Clinical_Information>
No Development Reported

>  <SUPPLIER>
MedChemExpress

$$$$
Untitled Document
  ChemDraw09201613432D

 29 31  0  0  0  0  0  0  0  0999 V2000
   -0.1643   -2.1296    0.0000 P   0  0  0  0  0  0  0  0  0  0  0  0
   -0.1643   -2.9519    0.0000 O   0  0  0  0  0  0  0  0  0  0  0  0
   -0.8765   -1.7184    0.0000 O   0  0  0  0  0  0  0  0  0  0  0  0
    0.6488   -1.9892    0.0000 O   0  0  0  0  0  0  0  0  0  0  0  0
   -0.1643   -1.3073    0.0000 O   0  0  0  0  0  0  0  0  0  0  0  0
    3.2473    0.1216    0.0000 N   0  0  0  0  0  0  0  0  0  0  0  0
   -3.3301    1.1185    0.0000 C   0  0  0  0  0  0  0  0  0  0  0  0
   -3.3301    0.2992    0.0000 C   0  0  0  0  0  0  0  0  0  0  0  0
   -2.6139   -0.1134    0.0000 C   0  0  0  0  0  0  0  0  0  0  0  0
   -1.9036    0.2992    0.0000 C   0  0  0  0  0  0  0  0  0  0  0  0
   -1.9036    1.1185    0.0000 C   0  0  0  0  0  0  0  0  0  0  0  0
   -2.6139    1.5311    0.0000 C   0  0  0  0  0  0  0  0  0  0  0  0
   -4.0406   -0.1134    0.0000 F   0  0  0  0  0  0  0  0  0  0  0  0
   -1.1302    1.4221    0.0000 C   0  0  0  0  0  0  0  0  0  0  0  0
   -0.8895    2.2128    0.0000 C   0  0  0  0  0  0  0  0  0  0  0  0
   -1.3535    2.8945    0.0000 C   0  0  0  0  0  0  0  0  0  0  0  0
   -2.1786    2.9519    0.0000 N   0  0  0  0  0  0  0  0  0  0  0  0
   -2.7401    2.3504    0.0000 C   0  0  0  0  0  0  0  0  0  0  0  0
   -3.5249    2.5910    0.0000 O   0  0  0  0  0  0  0  0  0  0  0  0
   -1.1186    0.0413    0.0000 N   0  0  0  0  0  0  0  0  0  0  0  0
   -0.6317    0.7117    0.0000 C   0  0  0  0  0  0  0  0  0  0  0  0
    0.1934    0.7003    0.0000 C   0  0  0  0  0  0  0  0  0  0  0  0
    0.5945   -0.0159    0.0000 C   0  0  0  0  0  0  0  0  0  0  0  0
    1.4195   -0.0159    0.0000 C   0  0  0  0  0  0  0  0  0  0  0  0
    1.8435    0.7003    0.0000 C   0  0  0  0  0  0  0  0  0  0  0  0
    1.4195    1.4221    0.0000 C   0  0  0  0  0  0  0  0  0  0  0  0
    0.5945    1.4221    0.0000 C   0  0  0  0  0  0  0  0  0  0  0  0
    2.6629    0.7003    0.0000 C   0  0  0  0  0  0  0  0  0  0  0  0
    4.0406    0.3385    0.0000 C   0  0  0  0  0  0  0  0  0  0  0  0
  1  2  2  0      
  1  3  1  0      
  1  4  1  0      
  1  5  1  0      
  8 13  1  0      
 11 14  1  0      
 14 15  1  0      
 15 16  1  0      
 16 17  1  0      
 17 18  1  0      
 18 12  1  0      
 18 19  2  0      
 10 20  1  0      
 20 21  1  0      
 21 14  2  0      
 21 22  1  0      
 22 23  1  0      
 23 24  2  0      
 24 25  1  0      
 25 26  2  0      
 26 27  1  0      
 27 22  2  0      
 25 28  1  0      
  7  8  2  0      
  8  9  1  0      
  9 10  2  0      
 10 11  1  0      
 11 12  2  0      
 12  7  1  0      
 28  6  1  0      
  6 29  1  0      
M  END

>  <RackCode>
HYCPK72336

>  <Cat. No.>
HY-10617

>  <Product Name>
Rucaparib (phosphate)

>  <ROW>
E

>  <COLUMN>
4

>  <CAS No.>
459868-92-9

>  <MWt>
421.36

>  <Target>
PARP

>  <Saltdate>
Phosphate

>  <Smiles>
O=P(O)(O)O.FC1=CC2=C3C(CCNC2=O)=C(C4=CC=C(CNC)C=C4)NC3=C1

>  <Solvent>
DMSO Solution

>  <Batch No.>
29562

>  <Quantity>
10mM  * 50uL

>  <Pathway>
Cell Cycle/DNA Damage; Epigenetics

>  <Synonyms>
AG-014699 (phosphate); PF-01367338 (phosphate)

>  <Formula>
C19H21FN3O5P

>  <Research_Area>
Cancer

>  <Clinical_Information>
Launched

>  <SUPPLIER>
MedChemExpress

$$$$
Untitled Document
  ChemDraw05192013552D

 29 32  0  0  0  0  0  0  0  0999 V2000
    0.0644    1.4638    0.0000 N   0  0  0  0  0  0  0  0  0  0  0  0
   -0.1071    2.2708    0.0000 N   0  0  0  0  0  0  0  0  0  0  0  0
   -0.9276    2.3570    0.0000 N   0  0  0  0  0  0  0  0  0  0  0  0
   -1.2631    1.6034    0.0000 C   0  0  0  0  0  0  0  0  0  0  0  0
   -0.6501    1.0513    0.0000 C   0  0  0  0  0  0  0  0  0  0  0  0
   -2.0701    1.4318    0.0000 C   0  0  0  0  0  0  0  0  0  0  0  0
   -2.6222    2.0449    0.0000 O   0  0  0  0  0  0  0  0  0  0  0  0
   -2.3251    0.6472    0.0000 N   0  0  0  0  0  0  0  0  0  0  0  0
   -1.7730    0.0341    0.0000 N   0  0  0  0  0  0  0  0  0  0  0  0
   -2.0280   -2.0854    0.0000 N   0  0  0  0  0  0  0  0  0  0  0  0
   -1.5430   -1.4180    0.0000 C   0  0  0  0  0  0  0  0  0  0  0  0
   -2.0280   -0.7505    0.0000 C   0  0  0  0  0  0  0  0  0  0  0  0
   -2.8126   -1.0055    0.0000 C   0  0  0  0  0  0  0  0  0  0  0  0
   -3.5271   -0.5930    0.0000 C   0  0  0  0  0  0  0  0  0  0  0  0
   -4.2415   -1.0055    0.0000 C   0  0  0  0  0  0  0  0  0  0  0  0
   -4.2415   -1.8305    0.0000 C   0  0  0  0  0  0  0  0  0  0  0  0
   -3.5271   -2.2430    0.0000 C   0  0  0  0  0  0  0  0  0  0  0  0
   -2.8126   -1.8305    0.0000 C   0  0  0  0  0  0  0  0  0  0  0  0
   -0.7180   -1.4180    0.0000 O   0  0  0  0  0  0  0  0  0  0  0  0
   -3.5271   -3.0680    0.0000 C   0  0  0  0  0  0  0  0  0  0  0  0
    0.8181    1.1283    0.0000 C   0  0  0  0  0  0  0  0  0  0  0  0
    1.4855    1.6132    0.0000 C   0  0  0  0  0  0  0  0  0  0  0  0
    1.3993    2.4337    0.0000 C   0  0  0  0  0  0  0  0  0  0  0  0
    2.0667    2.9186    0.0000 C   0  0  0  0  0  0  0  0  0  0  0  0
    2.8204    2.5830    0.0000 C   0  0  0  0  0  0  0  0  0  0  0  0
    2.9066    1.7625    0.0000 C   0  0  0  0  0  0  0  0  0  0  0  0
    2.2392    1.2776    0.0000 C   0  0  0  0  0  0  0  0  0  0  0  0
    3.4879    3.0680    0.0000 O   0  0  0  0  0  0  0  0  0  0  0  0
    4.2415    2.7324    0.0000 C   0  0  0  0  0  0  0  0  0  0  0  0
  1  2  1  0      
  2  3  2  0      
  3  4  1  0      
  4  5  2  0      
  1  5  1  0      
  8  9  1  0      
  6  7  2  0      
  6  8  1  0      
  4  6  1  0      
 10 11  1  0      
 11 12  1  0      
 12 13  1  0      
 13 14  1  0      
 14 15  2  0      
 15 16  1  0      
 16 17  2  0      
 17 18  1  0      
 10 18  1  0      
 13 18  2  0      
 11 19  2  0      
 17 20  1  0      
  9 12  2  0      
 21 22  1  0      
 22 23  1  0      
 23 24  2  0      
 24 25  1  0      
 25 26  2  0      
 26 27  1  0      
 22 27  2  0      
 28 29  1  0      
 25 28  1  0      
  1 21  1  0      
M  END

>  <RackCode>
HYCPK72336

>  <Cat. No.>
HY-114317

>  <Product Name>
MARK4 inhibitor 1

>  <ROW>
F

>  <COLUMN>
4

>  <CAS No.>
2271081-58-2

>  <MWt>
390.40

>  <Target>
AMPK; Apoptosis; MARK

>  <Saltdate>
Free Base

>  <Smiles>
O=C(C1=CN(CC2=CC=C(OC)C=C2)N=N1)N/N=C3C(NC4=C/3C=CC=C4C)=O

>  <Solvent>
DMSO Solution

>  <Batch No.>
65496

>  <Quantity>
10mM  * 50uL

>  <Pathway>
Apoptosis; Cell Cycle/DNA Damage; Epigenetics; PI3K/Akt/mTOR

>  <Synonyms>


>  <Formula>
C20H18N6O3

>  <Research_Area>
Cancer

>  <Clinical_Information>
No Development Reported

>  <SUPPLIER>
MedChemExpress

$$$$
Untitled Document
  ChemDraw10221913302D

 24 26  0  0  0  0  0  0  0  0999 V2000
    1.4527    1.9301    0.0000 C   0  0  0  0  0  0  0  0  0  0  0  0
    2.2597    2.1017    0.0000 C   0  0  0  0  0  0  0  0  0  0  0  0
    1.1978   -0.1894    0.0000 C   0  0  0  0  0  0  0  0  0  0  0  0
    1.6827    0.4781    0.0000 C   0  0  0  0  0  0  0  0  0  0  0  0
    1.1978    1.1455    0.0000 C   0  0  0  0  0  0  0  0  0  0  0  0
    0.4132    0.8906    0.0000 N   0  0  0  0  0  0  0  0  0  0  0  0
   -0.3013    1.3031    0.0000 C   0  0  0  0  0  0  0  0  0  0  0  0
   -1.0158    0.8906    0.0000 C   0  0  0  0  0  0  0  0  0  0  0  0
   -1.0158    0.0656    0.0000 C   0  0  0  0  0  0  0  0  0  0  0  0
   -0.3013   -0.3469    0.0000 C   0  0  0  0  0  0  0  0  0  0  0  0
    0.4132    0.0656    0.0000 C   0  0  0  0  0  0  0  0  0  0  0  0
   -1.7302   -0.3469    0.0000 O   0  0  0  0  0  0  0  0  0  0  0  0
   -2.4447    0.0656    0.0000 C   0  0  0  0  0  0  0  0  0  0  0  0
   -3.1592   -0.3469    0.0000 C   0  0  0  0  0  0  0  0  0  0  0  0
   -3.8737    0.0656    0.0000 C   0  0  0  0  0  0  0  0  0  0  0  0
    1.4527   -0.9740    0.0000 C   0  0  0  0  0  0  0  0  0  0  0  0
    2.2597   -1.1455    0.0000 C   0  0  0  0  0  0  0  0  0  0  0  0
    2.5146   -1.9301    0.0000 C   0  0  0  0  0  0  0  0  0  0  0  0
    1.9626   -2.5432    0.0000 C   0  0  0  0  0  0  0  0  0  0  0  0
    1.1556   -2.3717    0.0000 C   0  0  0  0  0  0  0  0  0  0  0  0
    0.9007   -1.5871    0.0000 C   0  0  0  0  0  0  0  0  0  0  0  0
    3.3216   -2.1017    0.0000 O   0  0  0  0  0  0  0  0  0  0  0  0
    3.8737   -1.4886    0.0000 C   0  0  0  0  0  0  0  0  0  0  0  0
    0.9007    2.5432    0.0000 O   0  0  0  0  0  0  0  0  0  0  0  0
  1  2  1  0      
  3  4  1  0      
  4  5  2  0      
  5  6  1  0      
  6  7  1  0      
  7  8  2  0      
  8  9  1  0      
  9 10  2  0      
 10 11  1  0      
  3 11  2  0      
  6 11  1  0      
 13 14  1  0      
 14 15  1  0      
 12 13  1  0      
  9 12  1  0      
 16 17  1  0      
 17 18  2  0      
 18 19  1  0      
 19 20  2  0      
 20 21  1  0      
 16 21  2  0      
 22 23  1  0      
 18 22  1  0      
  3 16  1  0      
  1  5  1  0      
  1 24  2  0      
M  END

>  <RackCode>
HYCPK72336

>  <Cat. No.>
HY-107477

>  <Product Name>
GSK8573

>  <ROW>
G

>  <COLUMN>
4

>  <CAS No.>
1693766-04-9

>  <MWt>
323.39

>  <Target>
Epigenetic Reader Domain

>  <Saltdate>
Free Base

>  <Smiles>
CC(C1=CC(C2=CC=CC(OC)=C2)=C3C=C(OCCC)C=CN13)=O

>  <Solvent>
DMSO Solution

>  <Batch No.>
262491

>  <Quantity>
10mM  * 50uL

>  <Pathway>
Epigenetics

>  <Synonyms>


>  <Formula>
C20H21NO3

>  <Research_Area>
Cancer

>  <Clinical_Information>
No Development Reported

>  <SUPPLIER>
MedChemExpress

$$$$
Untitled Document
  ChemDraw07041610552D

 32 36  0  0  0  0  0  0  0  0999 V2000
    2.2231   -1.4438    0.0000 C   0  0  0  0  0  0  0  0  0  0  0  0
    2.9376   -1.0313    0.0000 N   0  0  0  0  0  0  0  0  0  0  0  0
    3.6521   -1.4438    0.0000 C   0  0  0  0  0  0  0  0  0  0  0  0
    3.6521   -2.2688    0.0000 C   0  0  0  0  0  0  0  0  0  0  0  0
    2.9376   -2.6813    0.0000 C   0  0  0  0  0  0  0  0  0  0  0  0
    2.2231   -2.2688    0.0000 N   0  0  0  0  0  0  0  0  0  0  0  0
    4.4367   -1.1888    0.0000 N   0  0  0  0  0  0  0  0  0  0  0  0
    4.4367   -2.5237    0.0000 C   0  0  0  0  0  0  0  0  0  0  0  0
    4.9216   -1.8563    0.0000 C   0  0  0  0  0  0  0  0  0  0  0  0
    2.9376   -3.5063    0.0000 O   0  0  0  0  0  0  0  0  0  0  0  0
    4.6916   -0.4042    0.0000 C   0  0  0  0  0  0  0  0  0  0  0  0
    1.5086   -1.0313    0.0000 C   0  0  0  0  0  0  0  0  0  0  0  0
    0.7942   -1.4438    0.0000 C   0  0  0  0  0  0  0  0  0  0  0  0
    0.0797   -1.0313    0.0000 C   0  0  0  0  0  0  0  0  0  0  0  0
    0.0797   -0.2062    0.0000 C   0  0  0  0  0  0  0  0  0  0  0  0
    0.7942    0.2062    0.0000 C   0  0  0  0  0  0  0  0  0  0  0  0
    1.5086   -0.2062    0.0000 C   0  0  0  0  0  0  0  0  0  0  0  0
   -1.3492   -0.2062    0.0000 C   0  0  0  0  0  0  0  0  0  0  0  0
   -0.6348    0.2062    0.0000 C   0  0  0  0  0  0  0  0  0  0  0  0
   -0.6348    1.0313    0.0000 C   0  0  0  0  0  0  0  0  0  0  0  0
   -1.3492    1.4438    0.0000 C   0  0  0  0  0  0  0  0  0  0  0  0
   -2.0637    1.0313    0.0000 C   0  0  0  0  0  0  0  0  0  0  0  0
   -2.0637    0.2062    0.0000 N   0  0  0  0  0  0  0  0  0  0  0  0
    0.0797    1.4438    0.0000 C   0  0  0  0  0  0  0  0  0  0  0  0
   -2.7782    1.4438    0.0000 N   0  0  0  0  0  0  0  0  0  0  0  0
   -3.4927    1.0313    0.0000 C   0  0  0  0  0  0  0  0  0  0  0  0
   -4.2071    1.4438    0.0000 C   0  0  0  0  0  0  0  0  0  0  0  0
   -4.2071    2.2688    0.0000 N   0  0  0  0  0  0  0  0  0  0  0  0
   -3.4927    2.6813    0.0000 C   0  0  0  0  0  0  0  0  0  0  0  0
   -2.7782    2.2688    0.0000 C   0  0  0  0  0  0  0  0  0  0  0  0
   -3.4927    3.5063    0.0000 C   0  0  0  0  0  0  0  0  0  0  0  0
   -4.9216    1.0313    0.0000 C   0  0  0  0  0  0  0  0  0  0  0  0
  1  2  2  0      
  2  3  1  0      
  3  4  2  0      
  4  5  1  0      
  5  6  1  0      
  1  6  1  0      
  8  9  2  0      
  7  9  1  0      
  3  7  1  0      
  4  8  1  0      
  5 10  2  0      
  7 11  1  0      
 12 13  1  0      
 13 14  2  0      
 14 15  1  0      
 15 16  2  0      
 16 17  1  0      
 12 17  2  0      
 18 19  1  0      
 19 20  2  0      
 20 21  1  0      
 21 22  2  0      
 22 23  1  0      
 18 23  2  0      
 20 24  1  0      
 25 26  1  0      
 26 27  1  0      
 27 28  1  0      
 28 29  1  0      
 29 30  1  0      
 25 30  1  0      
 29 31  1  1      
 27 32  1  1      
 22 25  1  0      
 15 19  1  0      
  1 12  1  0      
M  END

>  <RackCode>
HYCPK72336

>  <Cat. No.>
HY-12975

>  <Product Name>
AZ6102

>  <ROW>
H

>  <COLUMN>
4

>  <CAS No.>
1645286-75-4

>  <MWt>
428.53

>  <Target>
PARP

>  <Saltdate>
Free Base

>  <Smiles>
O=C1C2=C(N(C)C=C2)N=C(C3=CC=C(C4=C(C)C=C(N5C[C@@H](C)N[C@@H](C)C5)N=C4)C=C3)N1

>  <Solvent>
DMSO Solution

>  <Batch No.>
28898

>  <Quantity>
10mM  * 50uL

>  <Pathway>
Cell Cycle/DNA Damage; Epigenetics

>  <Synonyms>


>  <Formula>
C25H28N6O

>  <Research_Area>
Cancer

>  <Clinical_Information>
No Development Reported

>  <SUPPLIER>
MedChemExpress

$$$$
Untitled Document
  ChemDraw05101917272D

 10  8  0  0  0  0  0  0  0  0999 V2000
    1.3737   -0.2062    0.0000 N   0  0  0  0  0  0  0  0  0  0  0  0
    0.6592    0.2062    0.0000 C   0  0  0  0  0  0  0  0  0  0  0  0
   -0.0553   -0.2062    0.0000 N   0  0  0  0  0  0  0  0  0  0  0  0
   -0.7697    0.2062    0.0000 C   0  0  0  0  0  0  0  0  0  0  0  0
   -1.4842   -0.2062    0.0000 N   0  0  0  0  0  0  0  0  0  0  0  0
   -2.1987    0.2062    0.0000 C   0  0  0  0  0  0  0  0  0  0  0  0
   -1.4842   -1.0313    0.0000 C   0  0  0  0  0  0  0  0  0  0  0  0
   -0.7697    1.0312    0.0000 N   0  0  0  0  0  0  0  0  0  0  0  0
    0.6592    1.0313    0.0000 N   0  0  0  0  0  0  0  0  0  0  0  0
    2.1987   -0.0000    0.0000 Cl  0  0  0  0  0  0  0  0  0  0  0  0
  1  2  1  0      
  2  3  1  0      
  3  4  1  0      
  4  5  1  0      
  5  6  1  0      
  5  7  1  0      
  4  8  2  0      
  2  9  2  0      
M  END

>  <RackCode>
HYCPK72336

>  <Cat. No.>
HY-17471A

>  <Product Name>
Metformin (hydrochloride)

>  <ROW>
I

>  <COLUMN>
4

>  <CAS No.>
1115-70-4

>  <MWt>
165.62

>  <Target>
AMPK; Autophagy; Mitophagy

>  <Saltdate>
Hydrochloride

>  <Smiles>
NC(NC(N(C)C)=N)=N.Cl

>  <Solvent>
DMSO Solution

>  <Batch No.>
21245

>  <Quantity>
10mM  * 50uL

>  <Pathway>
Autophagy; Epigenetics; PI3K/Akt/mTOR

>  <Synonyms>
1,1-Dimethylbiguanide (hydrochloride)

>  <Formula>
C4H12ClN5

>  <Research_Area>
Metabolic Disease; Cardiovascular Disease; Cancer

>  <Clinical_Information>
Launched

>  <SUPPLIER>
MedChemExpress

$$$$
Untitled Document
  ChemDraw07151610582D

 31 34  0  0  0  0  0  0  0  0999 V2000
    1.1259    2.4205    0.0000 O   0  0  0  0  0  0  0  0  0  0  0  0
    1.5384    1.7060    0.0000 C   0  0  0  0  0  0  0  0  0  0  0  0
    2.3634    1.7060    0.0000 O   0  0  0  0  0  0  0  0  0  0  0  0
    2.7759    2.4205    0.0000 C   0  0  0  0  0  0  0  0  0  0  0  0
    2.3634    3.1350    0.0000 C   0  0  0  0  0  0  0  0  0  0  0  0
    3.1884    3.1350    0.0000 C   0  0  0  0  0  0  0  0  0  0  0  0
    3.6009    2.4205    0.0000 C   0  0  0  0  0  0  0  0  0  0  0  0
    1.1259    0.9915    0.0000 C   0  0  0  0  0  0  0  0  0  0  0  0
    0.3009    0.9915    0.0000 C   0  0  0  0  0  0  0  0  0  0  0  0
   -0.0570    0.2482    0.0000 N   0  0  0  0  0  0  0  0  0  0  0  0
   -0.8614    0.0647    0.0000 C   0  0  0  0  0  0  0  0  0  0  0  0
   -1.0449   -0.7397    0.0000 C   0  0  0  0  0  0  0  0  0  0  0  0
   -0.4402   -1.3008    0.0000 C   0  0  0  0  0  0  0  0  0  0  0  0
   -0.6237   -2.1051    0.0000 C   0  0  0  0  0  0  0  0  0  0  0  0
   -1.4121   -2.3483    0.0000 C   0  0  0  0  0  0  0  0  0  0  0  0
   -1.5957   -3.1526    0.0000 Cl  0  0  0  0  0  0  0  0  0  0  0  0
   -2.0169   -1.7871    0.0000 C   0  0  0  0  0  0  0  0  0  0  0  0
   -1.8333   -0.9828    0.0000 C   0  0  0  0  0  0  0  0  0  0  0  0
   -1.5064    0.5790    0.0000 C   0  0  0  0  0  0  0  0  0  0  0  0
   -1.5064    1.4040    0.0000 C   0  0  0  0  0  0  0  0  0  0  0  0
   -2.2910    1.6590    0.0000 S   0  0  0  0  0  0  0  0  0  0  0  0
   -2.7759    0.9915    0.0000 C   0  0  0  0  0  0  0  0  0  0  0  0
   -3.6009    0.9915    0.0000 C   0  0  0  0  0  0  0  0  0  0  0  0
   -2.2910    0.3241    0.0000 C   0  0  0  0  0  0  0  0  0  0  0  0
   -2.5459   -0.4605    0.0000 C   0  0  0  0  0  0  0  0  0  0  0  0
   -0.8614    1.9184    0.0000 N   0  0  0  0  0  0  0  0  0  0  0  0
   -0.0570    1.7348    0.0000 C   0  0  0  0  0  0  0  0  0  0  0  0
    0.3661    2.4431    0.0000 N   0  0  0  0  0  0  0  0  0  0  0  0
   -0.1767    3.0643    0.0000 N   0  0  0  0  0  0  0  0  0  0  0  0
   -0.9353    2.7401    0.0000 C   0  0  0  0  0  0  0  0  0  0  0  0
   -1.6498    3.1526    0.0000 C   0  0  0  0  0  0  0  0  0  0  0  0
  1  2  2  0      
  2  3  1  0      
  3  4  1  0      
  4  5  1  0      
  4  6  1  0      
  4  7  1  0      
  2  8  1  0      
  9  8  1  1      
  9 10  1  0      
 10 11  2  0      
 11 12  1  0      
 12 13  2  0      
 13 14  1  0      
 14 15  2  0      
 15 16  1  0      
 15 17  1  0      
 17 18  2  0      
 12 18  1  0      
 11 19  1  0      
 19 20  2  0      
 20 21  1  0      
 21 22  1  0      
 22 23  1  0      
 22 24  2  0      
 19 24  1  0      
 24 25  1  0      
 20 26  1  0      
 26 27  1  0      
  9 27  1  0      
 27 28  2  0      
 28 29  1  0      
 29 30  2  0      
 26 30  1  0      
 30 31  1  0      
M  END

>  <RackCode>
HYCPK72336

>  <Cat. No.>
HY-13030A

>  <Product Name>
(R)-(-)-JQ1 Enantiomer

>  <ROW>
J

>  <COLUMN>
4

>  <CAS No.>
1268524-71-5

>  <MWt>
456.99

>  <Target>
Epigenetic Reader Domain

>  <Saltdate>
Free Base

>  <Smiles>
O=C(C[C@H]1N=C(C2=C(N3C1=NN=C3C)SC(C)=C2C)C4=CC=C(C=C4)Cl)OC(C)(C)C

>  <Solvent>
DMSO Solution

>  <Batch No.>
07942

>  <Quantity>
10mM  * 50uL

>  <Pathway>
Epigenetics

>  <Synonyms>


>  <Formula>
C23H25ClN4O2S

>  <Research_Area>
Cancer

>  <Clinical_Information>
No Development Reported

>  <SUPPLIER>
MedChemExpress

$$$$
Untitled Document
  ChemDraw01282209582D

 24 25  0  0  0  0  0  0  0  0999 V2000
    2.5005    1.4438    0.0000 Cl  0  0  0  0  0  0  0  0  0  0  0  0
    1.7861    1.0313    0.0000 C   0  0  0  0  0  0  0  0  0  0  0  0
    1.0717    1.4438    0.0000 C   0  0  0  0  0  0  0  0  0  0  0  0
    0.3572    1.0313    0.0000 C   0  0  0  0  0  0  0  0  0  0  0  0
    0.3572    0.2062    0.0000 C   0  0  0  0  0  0  0  0  0  0  0  0
   -0.3572   -0.2063    0.0000 N   0  0  0  0  0  0  0  0  0  0  0  0
   -1.0717    0.2062    0.0000 C   0  0  0  0  0  0  0  0  0  0  0  0
   -1.7861   -0.2063    0.0000 C   0  0  0  0  0  0  0  0  0  0  0  0
   -2.5005    0.2062    0.0000 C   0  0  0  0  0  0  0  0  0  0  0  0
   -3.2150   -0.2063    0.0000 C   0  0  0  0  0  0  0  0  0  0  0  0
   -3.2150   -1.0313    0.0000 C   0  0  0  0  0  0  0  0  0  0  0  0
   -2.5005   -1.4438    0.0000 C   0  0  0  0  0  0  0  0  0  0  0  0
   -1.7861   -1.0313    0.0000 C   0  0  0  0  0  0  0  0  0  0  0  0
   -1.0717   -1.4438    0.0000 O   0  0  0  0  0  0  0  0  0  0  0  0
   -0.3572   -1.0313    0.0000 C   0  0  0  0  0  0  0  0  0  0  0  0
    0.3572   -1.4438    0.0000 C   0  0  0  0  0  0  0  0  0  0  0  0
    1.0717   -1.0313    0.0000 C   0  0  0  0  0  0  0  0  0  0  0  0
   -1.0717    1.0313    0.0000 O   0  0  0  0  0  0  0  0  0  0  0  0
    1.0717   -0.2063    0.0000 C   0  0  0  0  0  0  0  0  0  0  0  0
    1.7861    0.2062    0.0000 C   0  0  0  0  0  0  0  0  0  0  0  0
    2.5005   -0.2063    0.0000 C   0  0  0  0  0  0  0  0  0  0  0  0
    3.2150   -0.6188    0.0000 F   0  0  0  0  0  0  0  0  0  0  0  0
    2.5005   -1.0313    0.0000 F   0  0  0  0  0  0  0  0  0  0  0  0
    3.2150    0.2062    0.0000 F   0  0  0  0  0  0  0  0  0  0  0  0
  1  2  1  0      
  2  3  2  0      
  3  4  1  0      
  4  5  2  0      
  5  6  1  0      
  6  7  1  0      
  7  8  1  0      
  8  9  2  0      
  9 10  1  0      
 10 11  2  0      
 11 12  1  0      
 12 13  2  0      
  8 13  1  0      
 13 14  1  0      
 14 15  1  0      
 15 16  1  0      
 16 17  1  0      
  7 18  2  0      
  5 19  1  0      
 19 20  2  0      
  2 20  1  0      
 20 21  1  0      
 21 22  1  0      
 21 23  1  0      
 21 24  1  0      
M  END

>  <RackCode>
HYCPK72336

>  <Cat. No.>
HY-116673

>  <Product Name>
TTK21

>  <ROW>
K

>  <COLUMN>
4

>  <CAS No.>
709676-56-2

>  <MWt>
357.75

>  <Target>
Histone Acetyltransferase

>  <Saltdate>


>  <Smiles>
ClC1=CC=C(C=C1C(F)(F)F)NC(C2=CC=CC=C2OCCC)=O

>  <Solvent>
DMSO Solution

>  <Batch No.>
145864

>  <Quantity>
10mM  * 50uL

>  <Pathway>
Epigenetics

>  <Synonyms>


>  <Formula>
C17H15ClF3NO2

>  <Research_Area>
Neurological Disease

>  <Clinical_Information>
No Development Reported

>  <SUPPLIER>
MedChemExpress

$$$$
Untitled Document
  ChemDraw11282209042D

 26 28  0  0  0  0  0  0  0  0999 V2000
    1.4289    1.6500    0.0000 C   0  0  0  0  0  0  0  0  0  0  0  0
    0.7145    1.2375    0.0000 C   0  0  0  0  0  0  0  0  0  0  0  0
   -0.0000    1.6500    0.0000 C   0  0  0  0  0  0  0  0  0  0  0  0
    1.4289    2.4749    0.0000 O   0  0  0  0  0  0  0  0  0  0  0  0
    2.1433    1.2375    0.0000 N   0  0  0  0  0  0  0  0  0  0  0  0
   -0.7145    0.4125    0.0000 C   0  0  0  0  0  0  0  0  0  0  0  0
   -0.7145    1.2375    0.0000 C   0  0  0  0  0  0  0  0  0  0  0  0
   -1.4289    1.6500    0.0000 C   0  0  0  0  0  0  0  0  0  0  0  0
   -2.1433    1.2375    0.0000 C   0  0  0  0  0  0  0  0  0  0  0  0
   -2.1433    0.4125    0.0000 C   0  0  0  0  0  0  0  0  0  0  0  0
   -1.4289    0.0000    0.0000 C   0  0  0  0  0  0  0  0  0  0  0  0
   -0.0000    0.0000    0.0000 C   0  0  0  0  0  0  0  0  0  0  0  0
    0.7145    0.4125    0.0000 C   0  0  0  0  0  0  0  0  0  0  0  0
    1.4289    0.0000    0.0000 C   0  0  0  0  0  0  0  0  0  0  0  0
    1.4289   -0.8250    0.0000 C   0  0  0  0  0  0  0  0  0  0  0  0
    0.7145   -1.2375    0.0000 C   0  0  0  0  0  0  0  0  0  0  0  0
   -0.0000   -0.8250    0.0000 C   0  0  0  0  0  0  0  0  0  0  0  0
    2.1433   -1.2375    0.0000 C   0  0  0  0  0  0  0  0  0  0  0  0
    2.8578   -0.8250    0.0000 C   0  0  0  0  0  0  0  0  0  0  0  0
    3.5723   -1.2375    0.0000 C   0  0  0  0  0  0  0  0  0  0  0  0
    3.5723   -2.0624    0.0000 C   0  0  0  0  0  0  0  0  0  0  0  0
    2.8578   -2.4749    0.0000 C   0  0  0  0  0  0  0  0  0  0  0  0
    2.1433   -2.0624    0.0000 C   0  0  0  0  0  0  0  0  0  0  0  0
   -2.8578    0.0000    0.0000 O   0  0  0  0  0  0  0  0  0  0  0  0
   -3.5723    0.4125    0.0000 C   0  0  0  0  0  0  0  0  0  0  0  0
    2.8578    1.6500    0.0000 O   0  0  0  0  0  0  0  0  0  0  0  0
  1  2  1  0      
  2  3  2  0      
  1  4  2  0      
  1  5  1  0      
  6  7  1  0      
  7  8  2  0      
  8  9  1  0      
  9 10  2  0      
 10 11  1  0      
  6 11  2  0      
 12 13  1  0      
 13 14  2  0      
 14 15  1  0      
 15 16  2  0      
 16 17  1  0      
 12 17  2  0      
  6 12  1  0      
 18 19  1  0      
 19 20  2  0      
 20 21  1  0      
 21 22  2  0      
 22 23  1  0      
 18 23  2  0      
 15 18  1  0      
 24 25  1  0      
 10 24  1  0      
  3  7  1  0      
  5 26  1  0      
M  END

>  <RackCode>
HYCPK72336

>  <Cat. No.>
HY-111342

>  <Product Name>
HDAC8-IN-1

>  <ROW>
L

>  <COLUMN>
4

>  <CAS No.>
1417997-93-3

>  <MWt>
345.39

>  <Target>
HDAC

>  <Saltdate>
Free Base

>  <Smiles>
O=C(NO)/C=C/C1=CC=C(OC)C=C1C2=CC=C(C3=CC=CC=C3)C=C2

>  <Solvent>
DMSO Solution

>  <Batch No.>
156496

>  <Quantity>
10mM  * 50uL

>  <Pathway>
Cell Cycle/DNA Damage; Epigenetics

>  <Synonyms>


>  <Formula>
C22H19NO3

>  <Research_Area>
Cancer

>  <Clinical_Information>
No Development Reported

>  <SUPPLIER>
MedChemExpress

$$$$
Untitled Document
  ChemDraw06281812382D

 33 36  0  0  0  0  0  0  0  0999 V2000
    5.2360   -0.1330    0.0000 C   0  0  0  0  0  0  0  0  0  0  0  0
    4.5216   -0.5455    0.0000 C   0  0  0  0  0  0  0  0  0  0  0  0
    3.8071   -0.1330    0.0000 C   0  0  0  0  0  0  0  0  0  0  0  0
    3.0926   -0.5455    0.0000 C   0  0  0  0  0  0  0  0  0  0  0  0
    3.0926   -1.3705    0.0000 C   0  0  0  0  0  0  0  0  0  0  0  0
    3.8071   -1.7830    0.0000 C   0  0  0  0  0  0  0  0  0  0  0  0
    4.5216   -1.3705    0.0000 C   0  0  0  0  0  0  0  0  0  0  0  0
    5.2360    0.6920    0.0000 O   0  0  0  0  0  0  0  0  0  0  0  0
    5.9505   -0.5455    0.0000 O   0  0  0  0  0  0  0  0  0  0  0  0
    2.3781   -0.1330    0.0000 N   0  0  0  0  0  0  0  0  0  0  0  0
    1.6637   -0.5455    0.0000 C   0  0  0  0  0  0  0  0  0  0  0  0
    1.6637   -1.3705    0.0000 O   0  0  0  0  0  0  0  0  0  0  0  0
    0.9492   -0.1330    0.0000 N   0  0  0  0  0  0  0  0  0  0  0  0
   -1.0710   -0.8230    0.0000 N   0  0  0  0  0  0  0  0  0  0  0  0
   -0.5189   -0.2099    0.0000 C   0  0  0  0  0  0  0  0  0  0  0  0
    0.2347   -0.5455    0.0000 C   0  0  0  0  0  0  0  0  0  0  0  0
    0.1485   -1.3659    0.0000 C   0  0  0  0  0  0  0  0  0  0  0  0
   -0.6585   -1.5375    0.0000 C   0  0  0  0  0  0  0  0  0  0  0  0
   -3.0475    0.1031    0.0000 C   0  0  0  0  0  0  0  0  0  0  0  0
   -2.2270    0.0169    0.0000 N   0  0  0  0  0  0  0  0  0  0  0  0
   -1.8915   -0.7368    0.0000 C   0  0  0  0  0  0  0  0  0  0  0  0
   -2.3764   -1.4042    0.0000 C   0  0  0  0  0  0  0  0  0  0  0  0
   -3.1969   -1.3180    0.0000 C   0  0  0  0  0  0  0  0  0  0  0  0
   -3.5324   -0.5643    0.0000 N   0  0  0  0  0  0  0  0  0  0  0  0
   -3.3831    0.8568    0.0000 N   0  0  0  0  0  0  0  0  0  0  0  0
   -4.2035    0.9431    0.0000 C   0  0  0  0  0  0  0  0  0  0  0  0
   -4.5391    1.6967    0.0000 C   0  0  0  0  0  0  0  0  0  0  0  0
   -5.3596    1.7830    0.0000 C   0  0  0  0  0  0  0  0  0  0  0  0
   -5.8445    1.1155    0.0000 C   0  0  0  0  0  0  0  0  0  0  0  0
   -5.5089    0.3619    0.0000 C   0  0  0  0  0  0  0  0  0  0  0  0
   -4.6885    0.2756    0.0000 C   0  0  0  0  0  0  0  0  0  0  0  0
   -6.6650    1.2018    0.0000 F   0  0  0  0  0  0  0  0  0  0  0  0
    6.6650   -0.1330    0.0000 C   0  0  0  0  0  0  0  0  0  0  0  0
  1  2  1  0      
  2  3  1  0      
  3  4  2  0      
  4  5  1  0      
  5  6  2  0      
  6  7  1  0      
  2  7  2  0      
  1  8  2  0      
  1  9  1  0      
 11 12  2  0      
 14 15  1  0      
 15 16  1  0      
 16 17  1  0      
 17 18  1  0      
 14 18  1  0      
 19 20  1  0      
 20 21  2  0      
 21 22  1  0      
 22 23  2  0      
 23 24  1  0      
 19 24  2  0      
 26 27  1  0      
 27 28  2  0      
 28 29  1  0      
 29 30  2  0      
 30 31  1  0      
 26 31  2  0      
 29 32  1  0      
 25 26  1  0      
 19 25  1  0      
 14 21  1  0      
 13 16  1  0      
 11 13  1  0      
 10 11  1  0      
  4 10  1  0      
  9 33  1  0      
M  END

>  <RackCode>
HYCPK72336

>  <Cat. No.>
HY-112398

>  <Product Name>
GSK1379725A

>  <ROW>
M

>  <COLUMN>
4

>  <CAS No.>
1802251-00-8

>  <MWt>
450.47

>  <Target>
Epigenetic Reader Domain

>  <Saltdate>
Free Base

>  <Smiles>
O=C(OC)C1=CC=CC(NC(NC2CN(C3=NC(NC4=CC=C(F)C=C4)=NC=C3)CC2)=O)=C1

>  <Solvent>
DMSO Solution

>  <Batch No.>
62850

>  <Quantity>
10mM  * 50uL

>  <Pathway>
Epigenetics

>  <Synonyms>


>  <Formula>
C23H23FN6O3

>  <Research_Area>
Others

>  <Clinical_Information>
No Development Reported

>  <SUPPLIER>
MedChemExpress

$$$$
Untitled Document
  ChemDraw08262114252D

 16 17  0  0  0  0  0  0  0  0999 V2000
   -1.4289    0.0000    0.0000 C   0  0  0  0  0  0  0  0  0  0  0  0
   -1.4289   -0.8250    0.0000 C   0  0  0  0  0  0  0  0  0  0  0  0
   -2.1433   -1.2375    0.0000 C   0  0  0  0  0  0  0  0  0  0  0  0
   -2.8578   -0.8250    0.0000 C   0  0  0  0  0  0  0  0  0  0  0  0
   -2.8578    0.0000    0.0000 C   0  0  0  0  0  0  0  0  0  0  0  0
   -2.1433    0.4125    0.0000 N   0  0  0  0  0  0  0  0  0  0  0  0
   -0.7145    0.4125    0.0000 C   0  0  0  0  0  0  0  0  0  0  0  0
   -0.7145    1.2375    0.0000 O   0  0  0  0  0  0  0  0  0  0  0  0
   -0.0000    0.0000    0.0000 N   0  0  0  0  0  0  0  0  0  0  0  0
    0.7145    0.4125    0.0000 N   0  0  0  0  0  0  0  0  0  0  0  0
    1.4289    0.0000    0.0000 C   0  0  0  0  0  0  0  0  0  0  0  0
    2.1433    0.4125    0.0000 C   0  0  0  0  0  0  0  0  0  0  0  0
    2.8578    0.0000    0.0000 C   0  0  0  0  0  0  0  0  0  0  0  0
    2.8578   -0.8250    0.0000 C   0  0  0  0  0  0  0  0  0  0  0  0
    2.1433   -1.2375    0.0000 C   0  0  0  0  0  0  0  0  0  0  0  0
    1.4289   -0.8250    0.0000 N   0  0  0  0  0  0  0  0  0  0  0  0
  1  2  1  0      
  2  3  2  0      
  3  4  1  0      
  4  5  2  0      
  5  6  1  0      
  1  6  2  0      
  7  8  2  0      
  9 10  1  0      
 11 12  1  0      
 12 13  2  0      
 13 14  1  0      
 14 15  2  0      
 15 16  1  0      
 11 16  2  0      
 10 11  1  0      
  7  9  1  0      
  1  7  1  0      
M  END

>  <RackCode>
HYCPK72336

>  <Cat. No.>
HY-139348

>  <Product Name>
PFI-90

>  <ROW>
N

>  <COLUMN>
4

>  <CAS No.>
53995-62-3

>  <MWt>
214.22

>  <Target>
Apoptosis; Histone Demethylase

>  <Saltdate>


>  <Smiles>
O=C(C1=NC=CC=C1)NNC2=NC=CC=C2

>  <Solvent>
DMSO Solution

>  <Batch No.>
213400

>  <Quantity>
10mM  * 50uL

>  <Pathway>
Apoptosis; Epigenetics

>  <Synonyms>


>  <Formula>
C11H10N4O

>  <Research_Area>
Cancer

>  <Clinical_Information>
No Development Reported

>  <SUPPLIER>
MedChemExpress

$$$$
Untitled Document
  ChemDraw06071610302D

 11 12  0  0  0  0  0  0  0  0999 V2000
    1.0717    0.4125    0.0000 C   0  0  0  0  0  0  0  0  0  0  0  0
    1.0717   -0.4125    0.0000 C   0  0  0  0  0  0  0  0  0  0  0  0
    0.3572   -0.8250    0.0000 C   0  0  0  0  0  0  0  0  0  0  0  0
   -0.3572   -0.4125    0.0000 C   0  0  0  0  0  0  0  0  0  0  0  0
   -0.3572    0.4125    0.0000 C   0  0  0  0  0  0  0  0  0  0  0  0
    0.3572    0.8250    0.0000 O   0  0  0  0  0  0  0  0  0  0  0  0
   -1.0717    0.8250    0.0000 C   0  0  0  0  0  0  0  0  0  0  0  0
   -1.7862    0.4125    0.0000 C   0  0  0  0  0  0  0  0  0  0  0  0
   -1.7862   -0.4125    0.0000 C   0  0  0  0  0  0  0  0  0  0  0  0
   -1.0717   -0.8250    0.0000 C   0  0  0  0  0  0  0  0  0  0  0  0
    1.7862    0.8250    0.0000 O   0  0  0  0  0  0  0  0  0  0  0  0
  1  2  1  0      
  2  3  1  0      
  3  4  1  0      
  4  5  1  0      
  5  6  1  0      
  1  6  1  0      
  7  8  1  0      
  8  9  2  0      
  9 10  1  0      
  4 10  2  0      
  5  7  2  0      
  1 11  2  0      
M  END

>  <RackCode>
HYCPK72336

>  <Cat. No.>
HY-N1926

>  <Product Name>
Dihydrocoumarin

>  <ROW>
O

>  <COLUMN>
4

>  <CAS No.>
119-84-6

>  <MWt>
148.16

>  <Target>
Sirtuin

>  <Saltdate>
Free Base

>  <Smiles>
O=C1CCC2=CC=CC=C2O1

>  <Solvent>
DMSO Solution

>  <Batch No.>
97029

>  <Quantity>
10mM  * 50uL

>  <Pathway>
Cell Cycle/DNA Damage; Epigenetics

>  <Synonyms>
Hydrocoumarin; Chroman-2-one

>  <Formula>
C9H8O2

>  <Research_Area>
Cancer

>  <Clinical_Information>
No Development Reported

>  <SUPPLIER>
MedChemExpress

$$$$
Untitled Document
  ChemDraw05151714572D

 26 30  0  0  0  0  0  0  0  0999 V2000
   -0.7346    1.7971    0.0000 C   0  0  0  0  0  0  0  0  0  0  0  0
   -0.7346    0.9721    0.0000 C   0  0  0  0  0  0  0  0  0  0  0  0
   -0.0202    0.5596    0.0000 O   0  0  0  0  0  0  0  0  0  0  0  0
    0.6943    0.9721    0.0000 C   0  0  0  0  0  0  0  0  0  0  0  0
    0.6943    1.7971    0.0000 C   0  0  0  0  0  0  0  0  0  0  0  0
   -0.0202    2.2095    0.0000 C   0  0  0  0  0  0  0  0  0  0  0  0
    1.4063    0.5610    0.0000 N   0  0  0  0  0  0  0  0  0  0  0  0
    1.4063   -0.2640    0.0000 C   0  0  0  0  0  0  0  0  0  0  0  0
    2.1207   -0.6765    0.0000 C   0  0  0  0  0  0  0  0  0  0  0  0
    2.8353   -0.2640    0.0000 O   0  0  0  0  0  0  0  0  0  0  0  0
    2.8353    0.5610    0.0000 C   0  0  0  0  0  0  0  0  0  0  0  0
    2.1207    0.9735    0.0000 C   0  0  0  0  0  0  0  0  0  0  0  0
   -0.0202    3.0318    0.0000 O   0  0  0  0  0  0  0  0  0  0  0  0
   -1.5193    2.0519    0.0000 S   0  0  0  0  0  0  0  0  0  0  0  0
   -2.0041    1.3846    0.0000 C   0  0  0  0  0  0  0  0  0  0  0  0
   -1.5193    0.7171    0.0000 C   0  0  0  0  0  0  0  0  0  0  0  0
   -1.7733   -0.0648    0.0000 C   0  0  0  0  0  0  0  0  0  0  0  0
   -2.5804   -0.2363    0.0000 C   0  0  0  0  0  0  0  0  0  0  0  0
   -2.8353   -1.0209    0.0000 C   0  0  0  0  0  0  0  0  0  0  0  0
   -2.2831   -1.6340    0.0000 C   0  0  0  0  0  0  0  0  0  0  0  0
   -1.4762   -1.4625    0.0000 C   0  0  0  0  0  0  0  0  0  0  0  0
   -1.2213   -0.6779    0.0000 C   0  0  0  0  0  0  0  0  0  0  0  0
   -2.5382   -2.4187    0.0000 O   0  0  0  0  0  0  0  0  0  0  0  0
   -1.9860   -3.0318    0.0000 C   0  0  0  0  0  0  0  0  0  0  0  0
   -1.1791   -2.8603    0.0000 C   0  0  0  0  0  0  0  0  0  0  0  0
   -0.9242   -2.0755    0.0000 O   0  0  0  0  0  0  0  0  0  0  0  0
  1  2  2  0      
  2  3  1  0      
  3  4  1  0      
  4  5  2  0      
  5  6  1  0      
  6  1  1  0      
  4  7  1  0      
  7  8  1  0      
  8  9  1  0      
  9 10  1  0      
 10 11  1  0      
 11 12  1  0      
 12  7  1  0      
  6 13  2  0      
  1 14  1  0      
 14 15  1  0      
 15 16  2  0      
 16  2  1  0      
 16 17  1  0      
 17 18  2  0      
 18 19  1  0      
 19 20  2  0      
 20 21  1  0      
 21 22  2  0      
 22 17  1  0      
 20 23  1  0      
 23 24  1  0      
 24 25  1  0      
 25 26  1  0      
 26 21  1  0      
M  END

>  <RackCode>
HYCPK72336

>  <Cat. No.>
HY-101146

>  <Product Name>
SF2523

>  <ROW>
P

>  <COLUMN>
4

>  <CAS No.>
1174428-47-7

>  <MWt>
371.41

>  <Target>
DNA-PK; Epigenetic Reader Domain; PI3K

>  <Saltdate>
Free Base

>  <Smiles>
O=C1C=C(N2CCOCC2)OC3=C1SC=C3C4=CC=C(OCCO5)C5=C4

>  <Solvent>
DMSO Solution

>  <Batch No.>
24559

>  <Quantity>
10mM  * 50uL

>  <Pathway>
Cell Cycle/DNA Damage; Epigenetics; PI3K/Akt/mTOR

>  <Synonyms>


>  <Formula>
C19H17NO5S

>  <Research_Area>
Cancer

>  <Clinical_Information>
No Development Reported

>  <SUPPLIER>
MedChemExpress

$$$$
Untitled Document
  ChemDraw07092110082D

 34 38  0  0  0  0  0  0  0  0999 V2000
   -1.3852    0.6036    0.0000 C   0  0  0  0  0  0  0  0  0  0  0  0
   -2.0997    1.0161    0.0000 C   0  0  0  0  0  0  0  0  0  0  0  0
   -2.8142    0.6036    0.0000 C   0  0  0  0  0  0  0  0  0  0  0  0
   -2.8142   -0.2214    0.0000 C   0  0  0  0  0  0  0  0  0  0  0  0
   -2.0997   -0.6339    0.0000 C   0  0  0  0  0  0  0  0  0  0  0  0
   -1.3852   -0.2214    0.0000 N   0  0  0  0  0  0  0  0  0  0  0  0
   -0.6006    0.8586    0.0000 N   0  0  0  0  0  0  0  0  0  0  0  0
   -0.1157    0.1911    0.0000 C   0  0  0  0  0  0  0  0  0  0  0  0
   -0.6006   -0.4763    0.0000 C   0  0  0  0  0  0  0  0  0  0  0  0
   -0.3457   -1.2609    0.0000 N   0  0  0  0  0  0  0  0  0  0  0  0
   -4.8343    1.2936    0.0000 O   0  0  0  0  0  0  0  0  0  0  0  0
   -4.4218    2.0081    0.0000 N   0  0  0  0  0  0  0  0  0  0  0  0
   -3.6149    1.8366    0.0000 C   0  0  0  0  0  0  0  0  0  0  0  0
   -3.5286    1.0161    0.0000 C   0  0  0  0  0  0  0  0  0  0  0  0
   -4.2823    0.6806    0.0000 C   0  0  0  0  0  0  0  0  0  0  0  0
   -4.4538   -0.1264    0.0000 C   0  0  0  0  0  0  0  0  0  0  0  0
   -3.0018    2.3886    0.0000 C   0  0  0  0  0  0  0  0  0  0  0  0
    0.4613   -1.4325    0.0000 C   0  0  0  0  0  0  0  0  0  0  0  0
    1.0134   -0.8194    0.0000 C   0  0  0  0  0  0  0  0  0  0  0  0
    1.8203   -0.9909    0.0000 C   0  0  0  0  0  0  0  0  0  0  0  0
    2.0753   -1.7755    0.0000 C   0  0  0  0  0  0  0  0  0  0  0  0
    1.5232   -2.3886    0.0000 C   0  0  0  0  0  0  0  0  0  0  0  0
    0.7163   -2.2171    0.0000 C   0  0  0  0  0  0  0  0  0  0  0  0
    0.7093    0.1911    0.0000 C   0  0  0  0  0  0  0  0  0  0  0  0
    1.1218    0.9056    0.0000 C   0  0  0  0  0  0  0  0  0  0  0  0
    1.9468    0.9056    0.0000 C   0  0  0  0  0  0  0  0  0  0  0  0
    2.3593    1.6201    0.0000 C   0  0  0  0  0  0  0  0  0  0  0  0
    3.1843    1.6201    0.0000 C   0  0  0  0  0  0  0  0  0  0  0  0
    3.5968    0.9056    0.0000 C   0  0  0  0  0  0  0  0  0  0  0  0
    3.1843    0.1911    0.0000 C   0  0  0  0  0  0  0  0  0  0  0  0
    2.3593    0.1911    0.0000 C   0  0  0  0  0  0  0  0  0  0  0  0
    4.4218    0.9056    0.0000 O   0  0  0  0  0  0  0  0  0  0  0  0
    4.8343    1.6201    0.0000 C   0  0  0  0  0  0  0  0  0  0  0  0
    3.5968    2.3345    0.0000 Cl  0  0  0  0  0  0  0  0  0  0  0  0
  1  2  1  0      
  2  3  2  0      
  3  4  1  0      
  4  5  2  0      
  5  6  1  0      
  1  6  1  0      
  7  8  1  0      
  8  9  2  0      
  9  6  1  0      
  7  1  2  0      
  9 10  1  0      
 11 12  1  0      
 12 13  2  0      
 13 14  1  0      
 14 15  2  0      
 11 15  1  0      
 15 16  1  0      
 13 17  1  0      
  3 14  1  0      
 18 19  1  0      
 19 20  1  0      
 20 21  1  0      
 21 22  1  0      
 22 23  1  0      
 18 23  1  0      
 10 18  1  0      
 24 25  1  0      
 26 27  1  0      
 27 28  2  0      
 28 29  1  0      
 29 30  2  0      
 30 31  1  0      
 26 31  2  0      
 32 33  1  0      
 29 32  1  0      
 28 34  1  0      
 25 26  1  0      
  8 24  1  0      
M  END

>  <RackCode>
HYCPK72336

>  <Cat. No.>
HY-139148

>  <Product Name>
UMB298

>  <ROW>
A

>  <COLUMN>
5

>  <CAS No.>
2266569-73-5

>  <MWt>
479.01

>  <Target>
Epigenetic Reader Domain

>  <Saltdate>


>  <Smiles>
CC1=C(C2=CC3=NC(CCC4=CC=C(OC)C(Cl)=C4)=C(NC5CCCCC5)N3C=C2)C(C)=NO1

>  <Solvent>
DMSO Solution

>  <Batch No.>
109518

>  <Quantity>
10mM  * 50uL

>  <Pathway>
Epigenetics

>  <Synonyms>


>  <Formula>
C27H31ClN4O2

>  <Research_Area>
Cancer

>  <Clinical_Information>
No Development Reported

>  <SUPPLIER>
MedChemExpress

$$$$
Untitled Document
  ChemDraw05101917272D

 38 42  0  0  0  0  0  0  0  0999 V2000
   -0.3572   -0.8250    0.0000 O   0  0  0  0  0  0  0  0  0  0  0  0
   -0.3572   -1.6500    0.0000 C   0  0  0  0  0  0  0  0  0  0  0  0
    0.3572   -2.0625    0.0000 N   0  0  0  0  0  0  0  0  0  0  0  0
    1.0717   -1.6500    0.0000 C   0  0  0  0  0  0  0  0  0  0  0  0
    1.0717   -0.8250    0.0000 C   0  0  0  0  0  0  0  0  0  0  0  0
    1.7862   -0.4125    0.0000 C   0  0  0  0  0  0  0  0  0  0  0  0
    2.5006   -0.8250    0.0000 C   0  0  0  0  0  0  0  0  0  0  0  0
    3.2151   -0.4125    0.0000 N   0  0  0  0  0  0  0  0  0  0  0  0
    3.2151    0.4125    0.0000 C   0  0  0  0  0  0  0  0  0  0  0  0
    2.5006    0.8250    0.0000 C   0  0  0  0  0  0  0  0  0  0  0  0
    2.5006    1.6500    0.0000 C   0  0  0  0  0  0  0  0  0  0  0  0
    1.7862    2.0625    0.0000 C   0  0  0  0  0  0  0  0  0  0  0  0
    1.0717    1.6500    0.0000 C   0  0  0  0  0  0  0  0  0  0  0  0
    0.3572    2.0625    0.0000 O   0  0  0  0  0  0  0  0  0  0  0  0
   -0.3572    1.6500    0.0000 C   0  0  0  0  0  0  0  0  0  0  0  0
   -1.0717    2.0625    0.0000 C   0  0  0  0  0  0  0  0  0  0  0  0
   -1.7862    1.6500    0.0000 C   0  0  0  0  0  0  0  0  0  0  0  0
   -2.5006    2.0625    0.0000 N   0  0  0  0  0  0  0  0  0  0  0  0
   -3.2151    1.6500    0.0000 C   0  0  0  0  0  0  0  0  0  0  0  0
   -3.9296    2.0625    0.0000 C   0  0  0  0  0  0  0  0  0  0  0  0
   -3.9296    2.8875    0.0000 O   0  0  0  0  0  0  0  0  0  0  0  0
   -3.2151    3.3000    0.0000 C   0  0  0  0  0  0  0  0  0  0  0  0
   -2.5006    2.8875    0.0000 C   0  0  0  0  0  0  0  0  0  0  0  0
    3.2151    2.0625    0.0000 N   0  0  0  0  0  0  0  0  0  0  0  0
    3.9296    1.6500    0.0000 C   0  0  0  0  0  0  0  0  0  0  0  0
    3.9296    0.8250    0.0000 N   0  0  0  0  0  0  0  0  0  0  0  0
    1.7862    0.4125    0.0000 C   0  0  0  0  0  0  0  0  0  0  0  0
    1.0717    0.8250    0.0000 C   0  0  0  0  0  0  0  0  0  0  0  0
    0.3572    0.4125    0.0000 O   0  0  0  0  0  0  0  0  0  0  0  0
   -0.3572    0.8250    0.0000 C   0  0  0  0  0  0  0  0  0  0  0  0
    2.5006   -1.6500    0.0000 C   0  0  0  0  0  0  0  0  0  0  0  0
    1.7862   -2.0625    0.0000 C   0  0  0  0  0  0  0  0  0  0  0  0
   -1.0717   -2.0625    0.0000 C   0  0  0  0  0  0  0  0  0  0  0  0
   -1.0717   -2.8875    0.0000 C   0  0  0  0  0  0  0  0  0  0  0  0
   -1.7862   -3.3000    0.0000 C   0  0  0  0  0  0  0  0  0  0  0  0
   -2.5006   -2.8875    0.0000 C   0  0  0  0  0  0  0  0  0  0  0  0
   -2.5006   -2.0625    0.0000 C   0  0  0  0  0  0  0  0  0  0  0  0
   -1.7862   -1.6500    0.0000 C   0  0  0  0  0  0  0  0  0  0  0  0
  1  2  2  0      
  2  3  1  0      
  3  4  1  0      
  4  5  2  0      
  5  6  1  0      
  6  7  2  0      
  7  8  1  0      
  8  9  1  0      
  9 10  2  0      
 10 11  1  0      
 11 12  1  0      
 12 13  2  0      
 13 14  1  0      
 14 15  1  0      
 15 16  1  0      
 16 17  1  0      
 17 18  1  0      
 18 19  1  0      
 19 20  1  0      
 20 21  1  0      
 21 22  1  0      
 22 23  1  0      
 18 23  1  0      
 11 24  2  0      
 24 25  1  0      
 25 26  2  0      
  9 26  1  0      
 10 27  1  0      
 27 28  2  0      
 13 28  1  0      
 28 29  1  0      
 29 30  1  0      
  7 31  1  0      
 31 32  2  0      
  4 32  1  0      
  2 33  1  0      
 33 34  2  0      
 34 35  1  0      
 35 36  2  0      
 36 37  1  0      
 37 38  2  0      
 33 38  1  0      
M  END

>  <RackCode>
HYCPK72336

>  <Cat. No.>
HY-10128

>  <Product Name>
ZM-447439

>  <ROW>
B

>  <COLUMN>
5

>  <CAS No.>
331771-20-1

>  <MWt>
513.59

>  <Target>
Apoptosis; Aurora Kinase

>  <Saltdate>
Free Base

>  <Smiles>
O=C(NC1=CC=C(NC2=C(C(C=C3OCCCN4CCOCC4)=NC=N2)C=C3OC)C=C1)C5=CC=CC=C5

>  <Solvent>
DMSO Solution

>  <Batch No.>
45176

>  <Quantity>
10mM  * 50uL

>  <Pathway>
Apoptosis; Cell Cycle/DNA Damage; Epigenetics

>  <Synonyms>


>  <Formula>
C29H31N5O4

>  <Research_Area>
Cancer

>  <Clinical_Information>
No Development Reported

>  <SUPPLIER>
MedChemExpress

$$$$
Untitled Document
  ChemDraw12151617012D

 24 27  0  0  0  0  0  0  0  0999 V2000
   -4.1978   -1.0633    0.0000 C   0  0  0  0  0  0  0  0  0  0  0  0
   -3.7888   -1.7798    0.0000 C   0  0  0  0  0  0  0  0  0  0  0  0
   -2.9810   -1.6121    0.0000 C   0  0  0  0  0  0  0  0  0  0  0  0
   -2.8974   -0.7914    0.0000 N   0  0  0  0  0  0  0  0  0  0  0  0
   -3.6535   -0.4518    0.0000 C   0  0  0  0  0  0  0  0  0  0  0  0
   -2.1829   -0.3789    0.0000 C   0  0  0  0  0  0  0  0  0  0  0  0
   -1.4685   -0.7914    0.0000 C   0  0  0  0  0  0  0  0  0  0  0  0
   -0.7540   -0.3789    0.0000 C   0  0  0  0  0  0  0  0  0  0  0  0
   -0.0395   -0.7914    0.0000 O   0  0  0  0  0  0  0  0  0  0  0  0
    0.6749   -0.3789    0.0000 C   0  0  0  0  0  0  0  0  0  0  0  0
    1.3804   -0.8066    0.0000 C   0  0  0  0  0  0  0  0  0  0  0  0
    2.1036   -0.4095    0.0000 C   0  0  0  0  0  0  0  0  0  0  0  0
    2.1036    0.4153    0.0000 C   0  0  0  0  0  0  0  0  0  0  0  0
    1.3804    0.8430    0.0000 C   0  0  0  0  0  0  0  0  0  0  0  0
    0.6749    0.4459    0.0000 C   0  0  0  0  0  0  0  0  0  0  0  0
   -0.0395    0.8584    0.0000 O   0  0  0  0  0  0  0  0  0  0  0  0
   -0.7540    0.4459    0.0000 C   0  0  0  0  0  0  0  0  0  0  0  0
    2.8880   -0.6644    0.0000 N   0  0  0  0  0  0  0  0  0  0  0  0
    3.3728    0.0029    0.0000 C   0  0  0  0  0  0  0  0  0  0  0  0
    2.8880    0.6701    0.0000 C   0  0  0  0  0  0  0  0  0  0  0  0
    3.6231    1.0447    0.0000 C   0  0  0  0  0  0  0  0  0  0  0  0
    3.2485    1.7798    0.0000 C   0  0  0  0  0  0  0  0  0  0  0  0
    2.5135    1.4052    0.0000 C   0  0  0  0  0  0  0  0  0  0  0  0
    4.1978    0.0029    0.0000 N   0  0  0  0  0  0  0  0  0  0  0  0
  1  2  1  0      
  2  3  1  0      
  3  4  1  0      
  4  5  1  0      
  5  1  1  0      
  4  6  1  0      
  6  7  1  0      
  7  8  1  0      
  8  9  1  0      
  9 10  1  0      
 10 11  2  0      
 11 12  1  0      
 12 13  2  0      
 13 14  1  0      
 14 15  2  0      
 15 10  1  0      
 15 16  1  0      
 16 17  1  0      
 12 18  1  0      
 18 19  2  0      
 19 20  1  0      
 20 13  1  0      
 20 21  1  0      
 21 22  1  0      
 22 23  1  0      
 23 20  1  0      
 19 24  1  0      
M  END

>  <RackCode>
HYCPK72336

>  <Cat. No.>
HY-12583

>  <Product Name>
A-366

>  <ROW>
C

>  <COLUMN>
5

>  <CAS No.>
1527503-11-2

>  <MWt>
329.44

>  <Target>
Epigenetic Reader Domain; Histone Methyltransferase

>  <Saltdate>
Free Base

>  <Smiles>
COC1=CC2=C(N=C(N)C23CCC3)C=C1OCCCN4CCCC4

>  <Solvent>
DMSO Solution

>  <Batch No.>
19515

>  <Quantity>
10mM  * 50uL

>  <Pathway>
Epigenetics

>  <Synonyms>


>  <Formula>
C19H27N3O2

>  <Research_Area>
Cancer

>  <Clinical_Information>
No Development Reported

>  <SUPPLIER>
MedChemExpress

$$$$
Untitled Document
  ChemDraw04072311152D

 16 17  0  0  0  0  0  0  0  0999 V2000
    0.0709   -0.9748    0.0000 C   0  0  0  0  0  0  0  0  0  0  0  0
   -0.9225   -0.9670    0.0000 C   0  0  0  0  0  0  0  0  0  0  0  0
   -1.2271   -0.6624    0.0000 C   0  0  0  0  0  0  0  0  0  0  0  0
   -0.4207   -0.4827    0.0000 O   0  0  0  0  0  0  0  0  0  0  0  0
    0.3815   -0.6752    0.0000 C   0  0  0  0  0  0  0  0  0  0  0  0
   -1.2271    0.1626    0.0000 C   0  0  0  0  0  0  0  0  0  0  0  0
   -1.8105    0.7460    0.0000 O   0  0  0  0  0  0  0  0  0  0  0  0
   -0.9225   -1.7920    0.0000 O   0  0  0  0  0  0  0  0  0  0  0  0
    0.0709   -1.7998    0.0000 O   0  0  0  0  0  0  0  0  0  0  0  0
    0.3815    0.1498    0.0000 N   0  0  0  0  0  0  0  0  0  0  0  0
    1.0960    0.5623    0.0000 C   0  0  0  0  0  0  0  0  0  0  0  0
    1.0960    1.3873    0.0000 N   0  0  0  0  0  0  0  0  0  0  0  0
    0.3815    1.7998    0.0000 C   0  0  0  0  0  0  0  0  0  0  0  0
   -0.3330    1.3873    0.0000 C   0  0  0  0  0  0  0  0  0  0  0  0
   -0.3330    0.5623    0.0000 C   0  0  0  0  0  0  0  0  0  0  0  0
    1.8105    0.1498    0.0000 O   0  0  0  0  0  0  0  0  0  0  0  0
  1  2  1  1      
  3  2  1  1      
  3  4  1  0      
  4  5  1  0      
  5  1  1  1      
  3  6  1  0      
  6  7  1  0      
  2  8  1  0      
  1  9  1  0      
  5 10  1  0      
 10 11  1  0      
 11 12  1  0      
 12 13  2  0      
 13 14  1  0      
 14 15  2  0      
 15 10  1  0      
 11 16  2  0      
M  END

>  <RackCode>
HYCPK72336

>  <Cat. No.>
HY-13420

>  <Product Name>
Zebularine

>  <ROW>
D

>  <COLUMN>
5

>  <CAS No.>
3690-10-6

>  <MWt>
228.20

>  <Target>
Autophagy; DNA Methyltransferase

>  <Saltdate>
Free Base

>  <Smiles>
OC[C@@H]1[C@@H](O)[C@@H](O)[C@H](N2C(N=CC=C2)=O)O1

>  <Solvent>
DMSO Solution

>  <Batch No.>
22438

>  <Quantity>
10mM  * 50uL

>  <Pathway>
Autophagy; Epigenetics

>  <Synonyms>
NSC309132; 4-Deoxyuridine

>  <Formula>
C9H12N2O5

>  <Research_Area>
Cancer

>  <Clinical_Information>
No Development Reported

>  <SUPPLIER>
MedChemExpress

$$$$
Untitled Document
  ChemDraw10271713532D

 38 42  0  0  0  0  0  0  0  0999 V2000
   -5.8274    2.8424    0.0000 C   0  0  0  0  0  0  0  0  0  0  0  0
   -6.5419    2.4299    0.0000 N   0  0  0  0  0  0  0  0  0  0  0  0
   -6.5419    1.6049    0.0000 C   0  0  0  0  0  0  0  0  0  0  0  0
   -5.8274    1.1924    0.0000 C   0  0  0  0  0  0  0  0  0  0  0  0
   -5.1129    1.6049    0.0000 C   0  0  0  0  0  0  0  0  0  0  0  0
   -5.1129    2.4299    0.0000 C   0  0  0  0  0  0  0  0  0  0  0  0
   -4.4010    2.8410    0.0000 C   0  0  0  0  0  0  0  0  0  0  0  0
   -3.6890    2.4299    0.0000 N   0  0  0  0  0  0  0  0  0  0  0  0
   -2.9770    2.8410    0.0000 C   0  0  0  0  0  0  0  0  0  0  0  0
   -2.2650    2.4299    0.0000 C   0  0  0  0  0  0  0  0  0  0  0  0
   -2.2650    1.6049    0.0000 C   0  0  0  0  0  0  0  0  0  0  0  0
   -1.5505    1.1924    0.0000 C   0  0  0  0  0  0  0  0  0  0  0  0
   -0.8360    1.6049    0.0000 C   0  0  0  0  0  0  0  0  0  0  0  0
   -0.8360    2.4299    0.0000 C   0  0  0  0  0  0  0  0  0  0  0  0
   -1.5505    2.8424    0.0000 C   0  0  0  0  0  0  0  0  0  0  0  0
   -2.9770    3.6631    0.0000 O   0  0  0  0  0  0  0  0  0  0  0  0
   -0.1241    1.1939    0.0000 C   0  0  0  0  0  0  0  0  0  0  0  0
   -0.0378    0.3734    0.0000 N   0  0  0  0  0  0  0  0  0  0  0  0
    0.7692    0.2019    0.0000 N   0  0  0  0  0  0  0  0  0  0  0  0
    1.1817    0.9163    0.0000 N   0  0  0  0  0  0  0  0  0  0  0  0
    0.6296    1.5294    0.0000 C   0  0  0  0  0  0  0  0  0  0  0  0
    1.9993    1.0023    0.0000 C   0  0  0  0  0  0  0  0  0  0  0  0
    2.4825    0.3372    0.0000 C   0  0  0  0  0  0  0  0  0  0  0  0
    2.1470   -0.4165    0.0000 C   0  0  0  0  0  0  0  0  0  0  0  0
    2.6319   -1.0840    0.0000 C   0  0  0  0  0  0  0  0  0  0  0  0
    3.4524   -0.9977    0.0000 C   0  0  0  0  0  0  0  0  0  0  0  0
    3.7879   -0.2441    0.0000 C   0  0  0  0  0  0  0  0  0  0  0  0
    3.3030    0.4234    0.0000 C   0  0  0  0  0  0  0  0  0  0  0  0
    3.9356   -1.6628    0.0000 C   0  0  0  0  0  0  0  0  0  0  0  0
    4.7532   -1.5769    0.0000 N   0  0  0  0  0  0  0  0  0  0  0  0
    3.6012   -2.4139    0.0000 O   0  0  0  0  0  0  0  0  0  0  0  0
    5.2365   -2.2420    0.0000 C   0  0  0  0  0  0  0  0  0  0  0  0
    4.9009   -2.9957    0.0000 C   0  0  0  0  0  0  0  0  0  0  0  0
    5.3859   -3.6631    0.0000 C   0  0  0  0  0  0  0  0  0  0  0  0
    6.2063   -3.5769    0.0000 C   0  0  0  0  0  0  0  0  0  0  0  0
    6.5419   -2.8232    0.0000 C   0  0  0  0  0  0  0  0  0  0  0  0
    6.0570   -2.1558    0.0000 C   0  0  0  0  0  0  0  0  0  0  0  0
    6.3914   -1.4047    0.0000 N   0  0  0  0  0  0  0  0  0  0  0  0
  1  2  2  0      
  2  3  1  0      
  3  4  2  0      
  4  5  1  0      
  5  6  2  0      
  6  1  1  0      
  6  7  1  0      
  7  8  1  0      
  8  9  1  0      
  9 10  1  0      
 10 11  2  0      
 11 12  1  0      
 12 13  2  0      
 13 14  1  0      
 14 15  2  0      
 15 10  1  0      
  9 16  2  0      
 13 17  1  0      
 17 18  1  0      
 18 19  2  0      
 19 20  1  0      
 20 21  1  0      
 21 17  2  0      
 20 22  1  0      
 22 23  1  0      
 23 24  2  0      
 24 25  1  0      
 25 26  2  0      
 26 27  1  0      
 27 28  2  0      
 28 23  1  0      
 26 29  1  0      
 29 30  1  0      
 29 31  2  0      
 30 32  1  0      
 32 33  2  0      
 33 34  1  0      
 34 35  2  0      
 35 36  1  0      
 36 37  2  0      
 37 32  1  0      
 37 38  1  0      
M  END

>  <RackCode>
HYCPK72336

>  <Cat. No.>
HY-108701

>  <Product Name>
Nampt-IN-3

>  <ROW>
E

>  <COLUMN>
5

>  <CAS No.>
2121591-52-2

>  <MWt>
503.55

>  <Target>
Apoptosis; Autophagy; HDAC; NAMPT

>  <Saltdate>
Free Base

>  <Smiles>
O=C(C1=CC=C(C2=CN(CC3=CC=C(C(NC4=CC=CC=C4N)=O)C=C3)N=N2)C=C1)NCC5=CC=CN=C5

>  <Solvent>
DMSO Solution

>  <Batch No.>
116849

>  <Quantity>
10mM  * 50uL

>  <Pathway>
Apoptosis; Autophagy; Cell Cycle/DNA Damage; Epigenetics; Metabolic Enzyme/Protease

>  <Synonyms>


>  <Formula>
C29H25N7O2

>  <Research_Area>
Cancer

>  <Clinical_Information>
No Development Reported

>  <SUPPLIER>
MedChemExpress

$$$$
Untitled Document
  ChemDraw03172010092D

 38 39  0  0  0  0  0  0  0  0999 V2000
    0.3572    0.2062    0.0000 C   0  0  0  0  0  0  0  0  0  0  0  0
   -0.3572   -0.2063    0.0000 C   0  0  0  0  0  0  0  0  0  0  0  0
    3.9296    1.4437    0.0000 C   0  0  0  0  0  0  0  0  0  0  0  0
    3.2151    1.0312    0.0000 C   0  0  0  0  0  0  0  0  0  0  0  0
    3.2151    0.2062    0.0000 C   0  0  0  0  0  0  0  0  0  0  0  0
    2.5006   -0.2063    0.0000 C   0  0  0  0  0  0  0  0  0  0  0  0
    1.7862    0.2062    0.0000 C   0  0  0  0  0  0  0  0  0  0  0  0
    1.7862    1.0312    0.0000 C   0  0  0  0  0  0  0  0  0  0  0  0
    2.5006    1.4437    0.0000 C   0  0  0  0  0  0  0  0  0  0  0  0
    1.0717   -0.2063    0.0000 O   0  0  0  0  0  0  0  0  0  0  0  0
   -3.9296   -1.4437    0.0000 C   0  0  0  0  0  0  0  0  0  0  0  0
   -3.2151   -1.0313    0.0000 C   0  0  0  0  0  0  0  0  0  0  0  0
   -3.2151   -0.2063    0.0000 C   0  0  0  0  0  0  0  0  0  0  0  0
   -2.5006    0.2062    0.0000 C   0  0  0  0  0  0  0  0  0  0  0  0
   -1.7862   -0.2063    0.0000 C   0  0  0  0  0  0  0  0  0  0  0  0
   -1.7862   -1.0313    0.0000 C   0  0  0  0  0  0  0  0  0  0  0  0
   -2.5006   -1.4437    0.0000 C   0  0  0  0  0  0  0  0  0  0  0  0
   -1.0717    0.2062    0.0000 O   0  0  0  0  0  0  0  0  0  0  0  0
    5.3585    1.4437    0.0000 C   0  0  0  0  0  0  0  0  0  0  0  0
    6.0730    1.0312    0.0000 C   0  0  0  0  0  0  0  0  0  0  0  0
    6.0730    0.2062    0.0000 C   0  0  0  0  0  0  0  0  0  0  0  0
    5.3585   -0.2063    0.0000 C   0  0  0  0  0  0  0  0  0  0  0  0
    4.6441    0.2062    0.0000 C   0  0  0  0  0  0  0  0  0  0  0  0
    4.6441    1.0312    0.0000 N   0  3  0  0  0  0  0  0  0  0  0  0
    6.7875   -0.2063    0.0000 N   0  0  0  0  0  0  0  0  0  0  0  0
    6.7875   -1.0313    0.0000 C   0  0  0  0  0  0  0  0  0  0  0  0
    7.5019    0.2062    0.0000 C   0  0  0  0  0  0  0  0  0  0  0  0
   -5.3585   -1.4437    0.0000 C   0  0  0  0  0  0  0  0  0  0  0  0
   -6.0730   -1.0313    0.0000 C   0  0  0  0  0  0  0  0  0  0  0  0
   -6.0730   -0.2063    0.0000 C   0  0  0  0  0  0  0  0  0  0  0  0
   -5.3585    0.2062    0.0000 C   0  0  0  0  0  0  0  0  0  0  0  0
   -4.6441   -0.2063    0.0000 C   0  0  0  0  0  0  0  0  0  0  0  0
   -4.6441   -1.0313    0.0000 N   0  3  0  0  0  0  0  0  0  0  0  0
   -6.7875    0.2062    0.0000 N   0  0  0  0  0  0  0  0  0  0  0  0
   -6.7875    1.0312    0.0000 C   0  0  0  0  0  0  0  0  0  0  0  0
   -7.5019   -0.2063    0.0000 C   0  0  0  0  0  0  0  0  0  0  0  0
   -4.6441   -1.8562    0.0000 Br  0  5  0  0  0  0  0  0  0  0  0  0
    4.6441    1.8562    0.0000 Br  0  5  0  0  0  0  0  0  0  0  0  0
  1  2  1  0      
  4  5  1  0      
  5  6  2  0      
  6  7  1  0      
  7  8  2  0      
  8  9  1  0      
  4  9  2  0      
  7 10  1  0      
  3  4  1  0      
  1 10  1  0      
 12 13  1  0      
 13 14  2  0      
 14 15  1  0      
 15 16  2  0      
 16 17  1  0      
 12 17  2  0      
 15 18  1  0      
 11 12  1  0      
  2 18  1  0      
 19 20  2  0      
 20 21  1  0      
 21 22  2  0      
 22 23  1  0      
 23 24  2  0      
 19 24  1  0      
 25 26  1  0      
 25 27  1  0      
 21 25  1  0      
  3 24  1  0      
 28 29  2  0      
 29 30  1  0      
 30 31  2  0      
 31 32  1  0      
 32 33  2  0      
 28 33  1  0      
 34 35  1  0      
 34 36  1  0      
 30 34  1  0      
 11 33  1  0      
M  CHG  4  24   1  33   1  37  -1  38  -1
M  END

>  <RackCode>
HYCPK72336

>  <Cat. No.>
HY-115463

>  <Product Name>
EB-3D

>  <ROW>
F

>  <COLUMN>
5

>  <CAS No.>
1839150-63-8

>  <MWt>
644.44

>  <Target>
AMPK; Apoptosis

>  <Saltdate>
Bromide

>  <Smiles>
CN(C1=CC=[N+](CC2=CC=C(OCCOC3=CC=C(C[N+]4=CC=C(N(C)C)C=C4)C=C3)C=C2)C=C1)C.[Br-].[Br-]

>  <Solvent>
DMSO Solution

>  <Batch No.>
61994

>  <Quantity>
10mM  * 50uL

>  <Pathway>
Apoptosis; Epigenetics; PI3K/Akt/mTOR

>  <Synonyms>


>  <Formula>
C30H36Br2N4O2

>  <Research_Area>
Cancer

>  <Clinical_Information>
No Development Reported

>  <SUPPLIER>
MedChemExpress

$$$$
Untitled Document
  ChemDraw06132316322D

 21 20  0  0  0  0  0  0  0  0999 V2000
   -6.4302   -0.2062    0.0000 C   0  0  0  0  0  0  0  0  0  0  0  0
   -5.7158    0.2063    0.0000 C   0  0  0  0  0  0  0  0  0  0  0  0
   -5.0013   -0.2062    0.0000 C   0  0  0  0  0  0  0  0  0  0  0  0
   -4.2868    0.2063    0.0000 C   0  0  0  0  0  0  0  0  0  0  0  0
   -3.5724   -0.2062    0.0000 C   0  0  0  0  0  0  0  0  0  0  0  0
   -2.8579    0.2063    0.0000 C   0  0  0  0  0  0  0  0  0  0  0  0
   -2.1434   -0.2062    0.0000 C   0  0  0  0  0  0  0  0  0  0  0  0
   -1.4289    0.2063    0.0000 C   0  0  0  0  0  0  0  0  0  0  0  0
   -0.7145   -0.2062    0.0000 C   0  0  0  0  0  0  0  0  0  0  0  0
   -0.0000    0.2063    0.0000 C   0  0  0  0  0  0  0  0  0  0  0  0
    0.7145   -0.2062    0.0000 C   0  0  0  0  0  0  0  0  0  0  0  0
    1.4289    0.2063    0.0000 C   0  0  0  0  0  0  0  0  0  0  0  0
    2.1434   -0.2062    0.0000 C   0  0  0  0  0  0  0  0  0  0  0  0
    2.8579    0.2063    0.0000 C   0  0  0  0  0  0  0  0  0  0  0  0
    3.5724   -0.2062    0.0000 C   0  0  0  0  0  0  0  0  0  0  0  0
    4.2868    0.2062    0.0000 C   0  0  0  0  0  0  0  0  0  0  0  0
    4.2868    1.0312    0.0000 O   0  0  0  0  0  0  0  0  0  0  0  0
    5.0013   -0.2062    0.0000 C   0  0  0  0  0  0  0  0  0  0  0  0
    5.0013   -1.0312    0.0000 N   0  0  0  0  0  0  0  0  0  0  0  0
    5.7158    0.2062    0.0000 C   0  0  0  0  0  0  0  0  0  0  0  0
    6.4302   -0.2062    0.0000 O   0  0  0  0  0  0  0  0  0  0  0  0
  1  2  1  0      
  2  3  1  0      
  3  4  1  0      
  4  5  1  0      
  5  6  1  0      
  6  7  1  0      
  7  8  1  0      
  8  9  1  0      
  9 10  1  0      
 10 11  1  0      
 11 12  1  0      
 12 13  1  0      
 13 14  1  0      
 14 15  1  0      
 15 16  1  0      
 16 17  1  6      
 16 18  1  0      
 18 19  1  1      
 18 20  1  0      
 20 21  1  0      
M  END

>  <RackCode>
HYCPK72336

>  <Cat. No.>
HY-101195

>  <Product Name>
DL-erythro-Dihydrosphingosine

>  <ROW>
G

>  <COLUMN>
5

>  <CAS No.>
3102-56-5

>  <MWt>
301.52

>  <Target>
Phospholipase; PKC

>  <Saltdate>


>  <Smiles>
CCCCCCCCCCCCCCC[C@H](O)[C@H](N)CO

>  <Solvent>
DMSO Solution

>  <Batch No.>
409509

>  <Quantity>
10mM  * 50uL

>  <Pathway>
Epigenetics; Metabolic Enzyme/Protease; TGF-beta/Smad

>  <Synonyms>


>  <Formula>
C18H39NO2

>  <Research_Area>
Cancer

>  <Clinical_Information>
No Development Reported

>  <SUPPLIER>
MedChemExpress

$$$$
Untitled Document
  ChemDraw09301914582D

 37 40  0  0  0  0  0  0  0  0999 V2000
   -4.6797    1.1654    0.0000 C   0  0  0  0  0  0  0  0  0  0  0  0
   -4.6797    0.3404    0.0000 C   0  0  0  0  0  0  0  0  0  0  0  0
   -3.9652   -0.0721    0.0000 C   0  0  0  0  0  0  0  0  0  0  0  0
   -3.2508    0.3404    0.0000 C   0  0  0  0  0  0  0  0  0  0  0  0
   -3.2508    1.1654    0.0000 C   0  0  0  0  0  0  0  0  0  0  0  0
   -3.9652    1.5779    0.0000 C   0  0  0  0  0  0  0  0  0  0  0  0
   -2.5363    1.5779    0.0000 N   0  0  0  0  0  0  0  0  0  0  0  0
   -1.8218    1.1654    0.0000 C   0  0  0  0  0  0  0  0  0  0  0  0
   -1.1074    1.5779    0.0000 N   0  0  0  0  0  0  0  0  0  0  0  0
   -0.3929    1.1654    0.0000 C   0  0  0  0  0  0  0  0  0  0  0  0
   -1.8218    0.3404    0.0000 O   0  0  0  0  0  0  0  0  0  0  0  0
   -0.3929    0.3404    0.0000 C   0  0  0  0  0  0  0  0  0  0  0  0
    0.3216   -0.0721    0.0000 C   0  0  0  0  0  0  0  0  0  0  0  0
    1.0361    0.3404    0.0000 C   0  0  0  0  0  0  0  0  0  0  0  0
    1.0361    1.1654    0.0000 C   0  0  0  0  0  0  0  0  0  0  0  0
    0.3216    1.5779    0.0000 C   0  0  0  0  0  0  0  0  0  0  0  0
    1.7505   -0.0721    0.0000 S   0  0  0  0  0  0  0  0  0  0  0  0
    2.4650   -0.4846    0.0000 N   0  0  0  0  0  0  0  0  0  0  0  0
    2.1616    0.6399    0.0000 O   0  0  0  0  0  0  0  0  0  0  0  0
    1.3380   -0.7865    0.0000 O   0  0  0  0  0  0  0  0  0  0  0  0
    2.5512   -1.3050    0.0000 C   0  0  0  0  0  0  0  0  0  0  0  0
    3.3582   -1.4766    0.0000 C   0  0  0  0  0  0  0  0  0  0  0  0
    3.7707   -0.7621    0.0000 C   0  0  0  0  0  0  0  0  0  0  0  0
    3.2187   -0.1490    0.0000 C   0  0  0  0  0  0  0  0  0  0  0  0
    3.6312    0.5655    0.0000 C   0  0  0  0  0  0  0  0  0  0  0  0
    4.4562    0.5655    0.0000 N   0  0  0  0  0  0  0  0  0  0  0  0
    3.2187    1.2799    0.0000 O   0  0  0  0  0  0  0  0  0  0  0  0
    4.8687   -0.1490    0.0000 C   0  0  0  0  0  0  0  0  0  0  0  0
    4.4562   -0.8635    0.0000 C   0  0  0  0  0  0  0  0  0  0  0  0
    4.8687   -1.5779    0.0000 C   0  0  0  0  0  0  0  0  0  0  0  0
    5.6937   -1.5779    0.0000 C   0  0  0  0  0  0  0  0  0  0  0  0
    6.1062   -0.8635    0.0000 C   0  0  0  0  0  0  0  0  0  0  0  0
    5.6937   -0.1490    0.0000 C   0  0  0  0  0  0  0  0  0  0  0  0
   -5.3942   -0.0721    0.0000 C   0  0  0  0  0  0  0  0  0  0  0  0
   -6.1062   -0.4831    0.0000 F   0  0  0  0  0  0  0  0  0  0  0  0
   -5.3942   -0.8942    0.0000 F   0  0  0  0  0  0  0  0  0  0  0  0
   -6.1062    0.3390    0.0000 F   0  0  0  0  0  0  0  0  0  0  0  0
  1  2  2  0      
  2  3  1  0      
  3  4  2  0      
  4  5  1  0      
  5  6  2  0      
  6  1  1  0      
  2 34  1  0      
  5  7  1  0      
  7  8  1  0      
  8  9  1  0      
  9 10  1  0      
  8 11  2  0      
 10 12  2  0      
 12 13  1  0      
 13 14  2  0      
 14 15  1  0      
 15 16  2  0      
 16 10  1  0      
 14 17  1  0      
 17 18  1  0      
 17 19  2  0      
 17 20  2  0      
 18 21  1  0      
 21 22  1  0      
 22 23  1  0      
 23 24  1  0      
 24 18  1  0      
 24 25  1  6      
 25 26  1  0      
 25 27  2  0      
 26 28  1  0      
 28 29  2  0      
 29 30  1  0      
 30 31  2  0      
 31 32  1  0      
 32 33  2  0      
 33 28  1  0      
 34 37  1  0      
 34 36  1  0      
 34 35  1  0      
M  END

>  <RackCode>
HYCPK72336

>  <Cat. No.>
HY-126428

>  <Product Name>
ZL0580

>  <ROW>
H

>  <COLUMN>
5

>  <CAS No.>
2377151-10-3

>  <MWt>
532.53

>  <Target>
Epigenetic Reader Domain; HIV

>  <Saltdate>


>  <Smiles>
O=C(NC1=CC=C(S(N2CCC[C@H]2C(NC3=CC=CC=C3)=O)(=O)=O)C=C1)NC4=CC=C(C(F)(F)F)C=C4

>  <Solvent>
DMSO Solution

>  <Batch No.>
65268

>  <Quantity>
10mM  * 50uL

>  <Pathway>
Anti-infection; Epigenetics

>  <Synonyms>


>  <Formula>
C25H23F3N4O4S

>  <Research_Area>
Infection; Inflammation/Immunology

>  <Clinical_Information>
No Development Reported

>  <SUPPLIER>
MedChemExpress

$$$$
Untitled Document
  ChemDraw06252308482D

 26 28  0  0  0  0  0  0  0  0999 V2000
    1.7862   -0.6187    0.0000 N   0  0  0  0  0  0  0  0  0  0  0  0
    2.5006   -1.0313    0.0000 C   0  0  0  0  0  0  0  0  0  0  0  0
    2.5006   -1.8563    0.0000 N   0  0  0  0  0  0  0  0  0  0  0  0
    1.7862   -2.2687    0.0000 C   0  0  0  0  0  0  0  0  0  0  0  0
    1.0717   -1.8563    0.0000 C   0  0  0  0  0  0  0  0  0  0  0  0
    0.3572   -2.2687    0.0000 N   0  0  0  0  0  0  0  0  0  0  0  0
   -0.3572   -1.8563    0.0000 C   0  0  0  0  0  0  0  0  0  0  0  0
   -0.3572   -1.0313    0.0000 C   0  0  0  0  0  0  0  0  0  0  0  0
    0.3572   -0.6187    0.0000 N   0  0  0  0  0  0  0  0  0  0  0  0
    1.0717   -1.0313    0.0000 C   0  0  0  0  0  0  0  0  0  0  0  0
   -1.0717   -0.6187    0.0000 C   0  0  0  0  0  0  0  0  0  0  0  0
   -1.7862   -1.0313    0.0000 C   0  0  0  0  0  0  0  0  0  0  0  0
   -1.7862   -1.8563    0.0000 C   0  0  0  0  0  0  0  0  0  0  0  0
   -1.0717   -2.2687    0.0000 C   0  0  0  0  0  0  0  0  0  0  0  0
    3.2151   -0.6187    0.0000 O   0  0  0  0  0  0  0  0  0  0  0  0
    1.7862   -3.0938    0.0000 O   0  0  0  0  0  0  0  0  0  0  0  0
    0.3572    0.2062    0.0000 C   0  0  0  0  0  0  0  0  0  0  0  0
    1.0717    0.6187    0.0000 C   0  0  0  0  0  0  0  0  0  0  0  0
    1.0717    1.4437    0.0000 O   0  0  0  0  0  0  0  0  0  0  0  0
    1.7862    1.8563    0.0000 C   0  0  0  0  0  0  0  0  0  0  0  0
    1.7862    2.6812    0.0000 C   0  0  0  0  0  0  0  0  0  0  0  0
    1.0717    3.0938    0.0000 C   0  0  0  0  0  0  0  0  0  0  0  0
    2.5006    3.0938    0.0000 C   0  0  0  0  0  0  0  0  0  0  0  0
   -2.5006   -0.6187    0.0000 C   0  0  0  0  0  0  0  0  0  0  0  0
   -3.2151   -1.0313    0.0000 C   0  0  0  0  0  0  0  0  0  0  0  0
   -2.5006   -2.2687    0.0000 Cl  0  0  0  0  0  0  0  0  0  0  0  0
  1  2  1  0      
  2  3  1  0      
  3  4  1  0      
  4  5  1  0      
  5  6  2  0      
  6  7  1  0      
  7  8  1  0      
  8  9  1  0      
  9 10  1  0      
  1 10  2  0      
  5 10  1  0      
 11 12  1  0      
 12 13  2  0      
 13 14  1  0      
 14  7  2  0      
 11  8  2  0      
  2 15  2  0      
  4 16  2  0      
 17 18  1  0      
 20 21  1  0      
 21 22  1  0      
 19 20  1  0      
 21 23  1  0      
 18 19  1  0      
  9 17  1  0      
 24 25  1  0      
 12 24  1  0      
 13 26  1  0      
M  END

>  <RackCode>
HYCPK72336

>  <Cat. No.>
HY-154944

>  <Product Name>
JG-2016

>  <ROW>
I

>  <COLUMN>
5

>  <CAS No.>
2887480-87-5

>  <MWt>
376.84

>  <Target>
Histone Acetyltransferase

>  <Saltdate>


>  <Smiles>
O=C(N1)N=C2N(CCOCC(C)C)C3=CC(CC)=C(Cl)C=C3N=C2C1=O

>  <Solvent>
DMSO Solution

>  <Batch No.>
357637

>  <Quantity>
10mM  * 50uL

>  <Pathway>
Epigenetics

>  <Synonyms>


>  <Formula>
C18H21ClN4O3

>  <Research_Area>
Cancer

>  <Clinical_Information>
No Development Reported

>  <SUPPLIER>
MedChemExpress

$$$$
Untitled Document
  ChemDraw08281815472D

 32 34  0  0  0  0  0  0  0  0999 V2000
   -1.4289    0.6188    0.0000 C   0  0  0  0  0  0  0  0  0  0  0  0
   -0.7145    0.2063    0.0000 N   0  0  0  0  0  0  0  0  0  0  0  0
    0.0000    0.6188    0.0000 C   0  0  0  0  0  0  0  0  0  0  0  0
    0.0000    1.4438    0.0000 C   0  0  0  0  0  0  0  0  0  0  0  0
   -0.7145    1.8563    0.0000 C   0  0  0  0  0  0  0  0  0  0  0  0
   -1.4289    1.4438    0.0000 N   0  0  0  0  0  0  0  0  0  0  0  0
   -2.1434    0.2063    0.0000 N   0  0  0  0  0  0  0  0  0  0  0  0
    0.7145    0.2063    0.0000 N   0  0  0  0  0  0  0  0  0  0  0  0
   -2.8579    0.6188    0.0000 C   0  0  0  0  0  0  0  0  0  0  0  0
   -3.5724    0.2063    0.0000 C   0  0  0  0  0  0  0  0  0  0  0  0
   -3.5724   -0.6188    0.0000 C   0  0  0  0  0  0  0  0  0  0  0  0
   -4.2868   -1.0313    0.0000 C   0  0  0  0  0  0  0  0  0  0  0  0
   -5.0013   -0.6188    0.0000 C   0  0  0  0  0  0  0  0  0  0  0  0
   -5.0013    0.2063    0.0000 C   0  0  0  0  0  0  0  0  0  0  0  0
   -4.2868    0.6188    0.0000 C   0  0  0  0  0  0  0  0  0  0  0  0
   -2.8579   -1.0313    0.0000 O   0  0  0  0  0  0  0  0  0  0  0  0
   -2.8579   -1.8563    0.0000 C   0  0  0  0  0  0  0  0  0  0  0  0
   -2.8579   -2.6813    0.0000 F   0  0  0  0  0  0  0  0  0  0  0  0
   -3.5724   -2.2688    0.0000 F   0  0  0  0  0  0  0  0  0  0  0  0
   -2.1434   -2.2688    0.0000 F   0  0  0  0  0  0  0  0  0  0  0  0
    0.7145    1.8563    0.0000 N   0  3  0  0  0  0  0  0  0  0  0  0
    0.7145    2.6813    0.0000 O   0  0  0  0  0  0  0  0  0  0  0  0
    1.4289    1.4438    0.0000 O   0  5  0  0  0  0  0  0  0  0  0  0
    1.4289    0.6188    0.0000 C   0  0  0  0  0  0  0  0  0  0  0  0
    2.1434    0.2063    0.0000 C   0  0  0  0  0  0  0  0  0  0  0  0
    2.8579    0.6188    0.0000 C   0  0  0  0  0  0  0  0  0  0  0  0
    3.5724    0.2063    0.0000 C   0  0  0  0  0  0  0  0  0  0  0  0
    3.5724   -0.6188    0.0000 C   0  0  0  0  0  0  0  0  0  0  0  0
    2.8579   -1.0313    0.0000 C   0  0  0  0  0  0  0  0  0  0  0  0
    2.1434   -0.6188    0.0000 C   0  0  0  0  0  0  0  0  0  0  0  0
    4.2868   -1.0313    0.0000 C   0  0  0  0  0  0  0  0  0  0  0  0
    5.0013   -0.6188    0.0000 N   0  0  0  0  0  0  0  0  0  0  0  0
  1  2  1  0      
  2  3  2  0      
  3  4  1  0      
  4  5  2  0      
  5  6  1  0      
  1  6  2  0      
  1  7  1  0      
  3  8  1  0      
 10 11  1  0      
 11 12  2  0      
 12 13  1  0      
 13 14  2  0      
 14 15  1  0      
 10 15  2  0      
 16 17  1  0      
 17 18  1  0      
 17 19  1  0      
 17 20  1  0      
 11 16  1  0      
  9 10  1  0      
  7  9  1  0      
 21 22  2  0      
 21 23  1  0      
  4 21  1  0      
 25 26  1  0      
 26 27  1  0      
 27 28  1  0      
 28 29  1  0      
 29 30  1  0      
 25 30  1  0      
 31 32  1  0      
 28 31  1  0      
 24 25  1  0      
  8 24  1  0      
M  CHG  2  21   1  23  -1
M  END

>  <RackCode>
HYCPK72336

>  <Cat. No.>
HY-112681

>  <Product Name>
PKC-theta inhibitor

>  <ROW>
J

>  <COLUMN>
5

>  <CAS No.>
736048-65-0

>  <MWt>
454.45

>  <Target>
PKC

>  <Saltdate>
Free Base

>  <Smiles>
FC(F)(F)OC1=CC=CC=C1CNC2=NC=C([N+]([O-])=O)C(NCC3CCC(CN)CC3)=N2

>  <Solvent>
DMSO Solution

>  <Batch No.>
38642

>  <Quantity>
10mM  * 50uL

>  <Pathway>
Epigenetics; TGF-beta/Smad

>  <Synonyms>


>  <Formula>
C20H25F3N6O3

>  <Research_Area>
Others

>  <Clinical_Information>
No Development Reported

>  <SUPPLIER>
MedChemExpress

$$$$
Untitled Document
  ChemDraw10272311052D

 29 32  0  0  0  0  0  0  0  0999 V2000
   -1.1643   -1.0939    0.0000 O   0  0  0  0  0  0  0  0  0  0  0  0
   -0.3797   -0.8390    0.0000 S   0  0  0  0  0  0  0  0  0  0  0  0
    0.4049   -0.5840    0.0000 O   0  0  0  0  0  0  0  0  0  0  0  0
   -0.1248   -1.6236    0.0000 C   0  0  0  0  0  0  0  0  0  0  0  0
    0.6822   -1.7951    0.0000 C   0  0  0  0  0  0  0  0  0  0  0  0
    0.9372   -2.5797    0.0000 C   0  0  0  0  0  0  0  0  0  0  0  0
    0.3851   -3.1928    0.0000 C   0  0  0  0  0  0  0  0  0  0  0  0
   -0.4218   -3.0213    0.0000 C   0  0  0  0  0  0  0  0  0  0  0  0
   -0.6768   -2.2367    0.0000 C   0  0  0  0  0  0  0  0  0  0  0  0
    0.6401   -3.9775    0.0000 C   0  0  0  0  0  0  0  0  0  0  0  0
   -0.6346   -0.0543    0.0000 N   0  0  0  0  0  0  0  0  0  0  0  0
   -0.1497    0.6131    0.0000 C   0  0  0  0  0  0  0  0  0  0  0  0
   -0.6346    1.2805    0.0000 C   0  0  0  0  0  0  0  0  0  0  0  0
   -1.4193    1.0256    0.0000 C   0  0  0  0  0  0  0  0  0  0  0  0
   -2.1337    1.4381    0.0000 C   0  0  0  0  0  0  0  0  0  0  0  0
   -2.8482    1.0256    0.0000 C   0  0  0  0  0  0  0  0  0  0  0  0
   -2.8482    0.2006    0.0000 C   0  0  0  0  0  0  0  0  0  0  0  0
   -2.1337   -0.2119    0.0000 C   0  0  0  0  0  0  0  0  0  0  0  0
   -1.4193    0.2006    0.0000 C   0  0  0  0  0  0  0  0  0  0  0  0
   -0.3797    2.0652    0.0000 C   0  0  0  0  0  0  0  0  0  0  0  0
    0.4273    2.2367    0.0000 C   0  0  0  0  0  0  0  0  0  0  0  0
    0.9793    1.6236    0.0000 C   0  0  0  0  0  0  0  0  0  0  0  0
    1.7863    1.7951    0.0000 C   0  0  0  0  0  0  0  0  0  0  0  0
    2.0412    2.5797    0.0000 C   0  0  0  0  0  0  0  0  0  0  0  0
    2.8482    2.7513    0.0000 O   0  0  0  0  0  0  0  0  0  0  0  0
    1.4892    3.1928    0.0000 C   0  0  0  0  0  0  0  0  0  0  0  0
    0.6822    3.0213    0.0000 C   0  0  0  0  0  0  0  0  0  0  0  0
    1.7441    3.9775    0.0000 C   0  0  0  0  0  0  0  0  0  0  0  0
    2.3383    1.1820    0.0000 C   0  0  0  0  0  0  0  0  0  0  0  0
  1  2  2  0      
  2  3  2  0      
  2  4  1  0      
  4  5  2  0      
  5  6  1  0      
  6  7  2  0      
  7  8  1  0      
  8  9  2  0      
  4  9  1  0      
  7 10  1  0      
  2 11  1  0      
 11 12  1  0      
 12 13  2  0      
 13 14  1  0      
 14 15  1  0      
 15 16  2  0      
 16 17  1  0      
 17 18  2  0      
 18 19  1  0      
 14 19  2  0      
 11 19  1  0      
 13 20  1  0      
 20 21  1  0      
 21 22  1  0      
 22 23  2  0      
 23 24  1  0      
 24 25  1  0      
 24 26  2  0      
 26 27  1  0      
 21 27  2  0      
 26 28  1  0      
 23 29  1  0      
M  END

>  <RackCode>
HYCPK72336

>  <Cat. No.>
HY-156432

>  <Product Name>
ALK-IN-26

>  <ROW>
K

>  <COLUMN>
5

>  <CAS No.>
2447607-85-2

>  <MWt>
405.51

>  <Target>
Anaplastic lymphoma kinase (ALK); Caspase; mTOR; PARP

>  <Saltdate>


>  <Smiles>
O=S(C1=CC=C(C)C=C1)(N2C=C(CC3=CC(C)=C(O)C(C)=C3)C4=C2C=CC=C4)=O

>  <Solvent>
DMSO Solution

>  <Batch No.>
427509

>  <Quantity>
10mM  * 50uL

>  <Pathway>
Apoptosis; Cell Cycle/DNA Damage; Epigenetics; PI3K/Akt/mTOR; Protein Tyrosine Kinase/RTK

>  <Synonyms>


>  <Formula>
C24H23NO3S

>  <Research_Area>
Cancer

>  <Clinical_Information>
No Development Reported

>  <SUPPLIER>
MedChemExpress

$$$$
Untitled Document
  ChemDraw04221615192D

 16 16  0  0  0  0  0  0  0  0999 V2000
   -3.5723   -1.2375    0.0000 Cl  0  0  0  0  0  0  0  0  0  0  0  0
   -2.8578   -0.8250    0.0000 C   0  0  0  0  0  0  0  0  0  0  0  0
   -2.8578    0.0000    0.0000 C   0  0  0  0  0  0  0  0  0  0  0  0
   -2.1433    0.4125    0.0000 C   0  0  0  0  0  0  0  0  0  0  0  0
   -1.4289    0.0000    0.0000 C   0  0  0  0  0  0  0  0  0  0  0  0
   -0.7145    0.4125    0.0000 O   0  0  0  0  0  0  0  0  0  0  0  0
   -0.0000    0.0000    0.0000 C   0  0  0  0  0  0  0  0  0  0  0  0
    0.7145    0.4125    0.0000 C   0  0  0  0  0  0  0  0  0  0  0  0
    1.4289    0.0000    0.0000 C   0  0  0  0  0  0  0  0  0  0  0  0
    2.1433    0.4125    0.0000 C   0  0  0  0  0  0  0  0  0  0  0  0
    2.8578    0.0000    0.0000 N   0  0  0  0  0  0  0  0  0  0  0  0
    3.5723    0.4125    0.0000 O   0  0  0  0  0  0  0  0  0  0  0  0
    2.1433    1.2375    0.0000 O   0  0  0  0  0  0  0  0  0  0  0  0
   -1.4289   -0.8250    0.0000 C   0  0  0  0  0  0  0  0  0  0  0  0
   -0.7145   -1.2375    0.0000 C   0  0  0  0  0  0  0  0  0  0  0  0
   -2.1433   -1.2375    0.0000 C   0  0  0  0  0  0  0  0  0  0  0  0
  1  2  1  0      
  2  3  2  0      
  3  4  1  0      
  4  5  2  0      
  5  6  1  0      
  6  7  1  0      
  7  8  1  0      
  8  9  1  0      
  9 10  1  0      
 10 11  1  0      
 11 12  1  0      
 10 13  2  0      
  5 14  1  0      
 14 15  1  0      
 14 16  2  0      
  2 16  1  0      
M  END

>  <RackCode>
HYCPK72336

>  <Cat. No.>
HY-13267

>  <Product Name>
Droxinostat

>  <ROW>
L

>  <COLUMN>
5

>  <CAS No.>
99873-43-5

>  <MWt>
243.69

>  <Target>
Apoptosis; HDAC

>  <Saltdate>
Free Base

>  <Smiles>
ClC1=CC=C(C(C)=C1)OCCCC(NO)=O

>  <Solvent>
DMSO Solution

>  <Batch No.>
04995

>  <Quantity>
10mM  * 50uL

>  <Pathway>
Apoptosis; Cell Cycle/DNA Damage; Epigenetics

>  <Synonyms>
NS 41080

>  <Formula>
C11H14ClNO3

>  <Research_Area>
Cancer

>  <Clinical_Information>
No Development Reported

>  <SUPPLIER>
MedChemExpress

$$$$
Untitled Document
  ChemDraw05201611112D

 32 34  0  0  0  0  0  0  0  0999 V2000
   -2.3225   -2.5214    0.0000 H   0  0  0  0  0  0  0  0  0  0  0  0
   -1.4975   -2.5214    0.0000 Cl  0  0  0  0  0  0  0  0  0  0  0  0
   -2.8817    1.4036    0.0000 C   0  0  0  0  0  0  0  0  0  0  0  0
   -2.4167    0.7204    0.0000 N   0  0  0  0  0  0  0  0  0  0  0  0
   -1.6246    0.9443    0.0000 C   0  0  0  0  0  0  0  0  0  0  0  0
   -1.5959    1.7709    0.0000 N   0  0  0  0  0  0  0  0  0  0  0  0
   -2.3708    2.0580    0.0000 C   0  0  0  0  0  0  0  0  0  0  0  0
   -0.9243    0.5081    0.0000 C   0  0  0  0  0  0  0  0  0  0  0  0
   -0.1894    0.8984    0.0000 N   0  0  0  0  0  0  0  0  0  0  0  0
   -0.1608    1.7250    0.0000 C   0  0  0  0  0  0  0  0  0  0  0  0
   -0.8610    2.1613    0.0000 C   0  0  0  0  0  0  0  0  0  0  0  0
   -2.5947    2.8501    0.0000 C   0  0  0  0  0  0  0  0  0  0  0  0
   -2.0895    3.4987    0.0000 C   0  0  0  0  0  0  0  0  0  0  0  0
   -2.5487    4.1818    0.0000 N   0  0  0  0  0  0  0  0  0  0  0  0
   -3.3466    3.9579    0.0000 N   0  0  0  0  0  0  0  0  0  0  0  0
   -3.3753    3.1313    0.0000 C   0  0  0  0  0  0  0  0  0  0  0  0
    0.5625    2.1096    0.0000 C   0  0  0  0  0  0  0  0  0  0  0  0
   -0.9529   -0.3129    0.0000 N   0  0  0  0  0  0  0  0  0  0  0  0
   -0.2527   -0.7490    0.0000 C   0  0  0  0  0  0  0  0  0  0  0  0
   -0.1952   -1.5756    0.0000 C   0  0  0  0  0  0  0  0  0  0  0  0
    0.6084   -1.7766    0.0000 C   0  0  0  0  0  0  0  0  0  0  0  0
    1.0447   -1.0762    0.0000 N   0  0  0  0  0  0  0  0  0  0  0  0
    0.5166   -0.4449    0.0000 S   0  0  0  0  0  0  0  0  0  0  0  0
    0.9127   -2.5400    0.0000 C   0  0  0  0  0  0  0  0  0  0  0  0
    1.7335   -2.6147    0.0000 N   0  0  0  0  0  0  0  0  0  0  0  0
    2.2099   -1.9373    0.0000 C   0  0  0  0  0  0  0  0  0  0  0  0
    1.8599   -1.1911    0.0000 C   0  0  0  0  0  0  0  0  0  0  0  0
    2.0837   -3.3610    0.0000 C   0  0  0  0  0  0  0  0  0  0  0  0
    1.3374   -3.7054    0.0000 C   0  0  0  0  0  0  0  0  0  0  0  0
    2.0091   -4.1818    0.0000 C   0  0  0  0  0  0  0  0  0  0  0  0
    2.9045   -3.4299    0.0000 C   0  0  0  0  0  0  0  0  0  0  0  0
    3.3753   -2.7582    0.0000 O   0  0  0  0  0  0  0  0  0  0  0  0
  1  2  1  0      
  3  4  1  0      
  4  5  2  0      
  5  6  1  0      
  6  7  1  0      
  7  3  2  0      
  5  8  1  0      
  8  9  2  0      
  9 10  1  0      
 10 11  2  0      
 11  6  1  0      
  7 12  1  0      
 12 13  2  0      
 13 14  1  0      
 14 15  1  0      
 15 16  2  0      
 16 12  1  0      
 10 17  1  0      
  8 18  1  0      
 18 19  1  0      
 19 20  2  0      
 20 21  1  0      
 21 22  2  0      
 22 23  1  0      
 23 19  1  0      
 21 24  1  0      
 24 25  1  0      
 25 26  1  0      
 26 27  1  0      
 25 28  1  0      
 28 29  1  0      
 28 30  1  0      
 28 31  1  0      
 31 32  1  0      
M  END

>  <RackCode>
HYCPK72336

>  <Cat. No.>
HY-10483

>  <Product Name>
SCH-1473759 (hydrochloride)

>  <ROW>
M

>  <COLUMN>
5

>  <CAS No.>
1094067-13-6

>  <MWt>
463.00

>  <Target>
Aurora Kinase

>  <Saltdate>
Hydrochloride

>  <Smiles>
[H]Cl.CC1=CN2C(C(NC3=CC(CN(C(C)(CO)C)CC)=NS3)=N1)=NC=C2C4=CNN=C4

>  <Solvent>
DMSO Solution

>  <Batch No.>
16598

>  <Quantity>
10mM  * 50uL

>  <Pathway>
Cell Cycle/DNA Damage; Epigenetics

>  <Synonyms>


>  <Formula>
C20H27ClN8OS

>  <Research_Area>
Cancer

>  <Clinical_Information>
No Development Reported

>  <SUPPLIER>
MedChemExpress

$$$$
Untitled Document
  ChemDraw12271814212D

 30 33  0  0  0  0  0  0  0  0999 V2000
   -3.5724   -1.1540    0.0000 O   0  0  0  0  0  0  0  0  0  0  0  0
   -3.5724   -0.3290    0.0000 N   0  3  0  0  0  0  0  0  0  0  0  0
   -2.8579    0.0835    0.0000 C   0  0  0  0  0  0  0  0  0  0  0  0
   -2.8579    0.9085    0.0000 C   0  0  0  0  0  0  0  0  0  0  0  0
   -2.1434    1.3210    0.0000 C   0  0  0  0  0  0  0  0  0  0  0  0
   -1.4289    0.9085    0.0000 C   0  0  0  0  0  0  0  0  0  0  0  0
   -0.7145    1.3210    0.0000 N   0  0  0  0  0  0  0  0  0  0  0  0
    0.0000    0.9085    0.0000 C   0  0  0  0  0  0  0  0  0  0  0  0
    0.7145    1.3210    0.0000 N   0  0  0  0  0  0  0  0  0  0  0  0
    1.4289    0.9085    0.0000 C   0  0  0  0  0  0  0  0  0  0  0  0
    2.1434    1.3210    0.0000 N   0  0  0  0  0  0  0  0  0  0  0  0
    2.1434    2.1460    0.0000 C   0  0  0  0  0  0  0  0  0  0  0  0
    2.8579    2.5585    0.0000 C   0  0  0  0  0  0  0  0  0  0  0  0
    3.5724    2.1460    0.0000 N   0  0  0  0  0  0  0  0  0  0  0  0
    4.2868    2.5585    0.0000 C   0  0  0  0  0  0  0  0  0  0  0  0
    3.5724    1.3210    0.0000 C   0  0  0  0  0  0  0  0  0  0  0  0
    2.8579    0.9085    0.0000 C   0  0  0  0  0  0  0  0  0  0  0  0
    1.4289    0.0835    0.0000 C   0  0  0  0  0  0  0  0  0  0  0  0
    0.7145   -0.3290    0.0000 C   0  0  0  0  0  0  0  0  0  0  0  0
    0.7145   -1.1540    0.0000 N   0  0  0  0  0  0  0  0  0  0  0  0
    0.0000   -1.5665    0.0000 C   0  0  0  0  0  0  0  0  0  0  0  0
   -0.0862   -2.3870    0.0000 N   0  0  0  0  0  0  0  0  0  0  0  0
   -0.8932   -2.5585    0.0000 N   0  0  0  0  0  0  0  0  0  0  0  0
   -1.3057   -1.8440    0.0000 C   0  0  0  0  0  0  0  0  0  0  0  0
   -2.1262   -1.7578    0.0000 C   0  0  0  0  0  0  0  0  0  0  0  0
   -0.7537   -1.2309    0.0000 C   0  0  0  0  0  0  0  0  0  0  0  0
    0.0000    0.0835    0.0000 N   0  0  0  0  0  0  0  0  0  0  0  0
   -1.4289    0.0835    0.0000 C   0  0  0  0  0  0  0  0  0  0  0  0
   -2.1434   -0.3290    0.0000 C   0  0  0  0  0  0  0  0  0  0  0  0
   -4.2868    0.0835    0.0000 O   0  5  0  0  0  0  0  0  0  0  0  0
  1  2  2  0      
  2  3  1  0      
  3  4  2  0      
  4  5  1  0      
  5  6  2  0      
  6  7  1  0      
  7  8  1  0      
  8  9  2  0      
  9 10  1  0      
 10 11  1  0      
 11 12  1  0      
 12 13  1  0      
 13 14  1  0      
 14 15  1  0      
 14 16  1  0      
 16 17  1  0      
 11 17  1  0      
 10 18  2  0      
 18 19  1  0      
 19 20  1  0      
 20 21  1  0      
 21 22  2  0      
 22 23  1  0      
 23 24  1  0      
 24 25  1  0      
 24 26  2  0      
 21 26  1  0      
 19 27  2  0      
  8 27  1  0      
  6 28  1  0      
 28 29  2  0      
  3 29  1  0      
  2 30  1  0      
M  CHG  2   2   1  30  -1
M  END

>  <RackCode>
HYCPK72336

>  <Cat. No.>
HY-123159

>  <Product Name>
AKI603

>  <ROW>
N

>  <COLUMN>
5

>  <CAS No.>
1432515-73-5

>  <MWt>
409.45

>  <Target>
Aurora Kinase

>  <Saltdate>


>  <Smiles>
O=[N+]([O-])C1=CC=C(C=C1)NC2=NC(N3CCN(CC3)C)=CC(NC4=NNC(C)=C4)=N2

>  <Solvent>
DMSO Solution

>  <Batch No.>
92828

>  <Quantity>
10mM  * 50uL

>  <Pathway>
Cell Cycle/DNA Damage; Epigenetics

>  <Synonyms>


>  <Formula>
C19H23N9O2

>  <Research_Area>
Cancer

>  <Clinical_Information>
No Development Reported

>  <SUPPLIER>
MedChemExpress

$$$$
Untitled Document
  ChemDraw01062310422D

 27 31  0  0  0  0  0  0  0  0999 V2000
   -0.7087    1.2748    0.0000 C   0  0  0  0  0  0  0  0  0  0  0  0
   -0.8803    2.0818    0.0000 N   0  0  0  0  0  0  0  0  0  0  0  0
   -0.1658    2.4943    0.0000 C   0  0  0  0  0  0  0  0  0  0  0  0
    0.4473    1.9423    0.0000 C   0  0  0  0  0  0  0  0  0  0  0  0
    0.1117    1.1886    0.0000 C   0  0  0  0  0  0  0  0  0  0  0  0
    0.9367    1.1886    0.0000 C   0  0  0  0  0  0  0  0  0  0  0  0
    1.3492    0.4741    0.0000 C   0  0  0  0  0  0  0  0  0  0  0  0
    0.9367   -0.2404    0.0000 N   0  0  0  0  0  0  0  0  0  0  0  0
    0.1117   -0.2404    0.0000 C   0  0  0  0  0  0  0  0  0  0  0  0
   -0.3008    0.4741    0.0000 C   0  0  0  0  0  0  0  0  0  0  0  0
   -1.2608    0.6617    0.0000 O   0  0  0  0  0  0  0  0  0  0  0  0
    1.3492   -2.3838    0.0000 C   0  0  0  0  0  0  0  0  0  0  0  0
    0.9367   -1.6693    0.0000 C   0  0  0  0  0  0  0  0  0  0  0  0
    1.3492   -0.9548    0.0000 C   0  0  0  0  0  0  0  0  0  0  0  0
    2.1742   -0.9548    0.0000 C   0  0  0  0  0  0  0  0  0  0  0  0
    2.5867   -1.6693    0.0000 C   0  0  0  0  0  0  0  0  0  0  0  0
    2.1742   -2.3838    0.0000 N   0  0  0  0  0  0  0  0  0  0  0  0
    2.5867   -0.2404    0.0000 Cl  0  0  0  0  0  0  0  0  0  0  0  0
   -0.3732   -1.0019    0.0000 O   0  0  0  0  0  0  0  0  0  0  0  0
    0.1117   -1.6693    0.0000 C   0  0  0  0  0  0  0  0  0  0  0  0
   -0.3732   -2.3367    0.0000 C   0  0  0  0  0  0  0  0  0  0  0  0
   -1.1578   -2.0818    0.0000 C   0  0  0  0  0  0  0  0  0  0  0  0
   -1.1578   -1.2568    0.0000 C   0  0  0  0  0  0  0  0  0  0  0  0
   -1.8723   -2.4943    0.0000 C   0  0  0  0  0  0  0  0  0  0  0  0
   -2.5867   -2.0818    0.0000 C   0  0  0  0  0  0  0  0  0  0  0  0
   -2.5867   -1.2568    0.0000 C   0  0  0  0  0  0  0  0  0  0  0  0
   -1.8723   -0.8443    0.0000 C   0  0  0  0  0  0  0  0  0  0  0  0
  1  2  1  0      
  2  3  1  0      
  3  4  1  0      
  4  5  1  0      
  5  6  1  0      
  6  7  1  0      
  7  8  1  0      
  8  9  1  0      
  9 10  1  0      
  1  5  1  0      
  5 10  1  0      
  1 11  2  0      
 12 13  1  0      
 13 14  2  0      
 14 15  1  0      
 15 16  2  0      
 16 17  1  0      
 12 17  2  0      
 15 18  1  0      
 19 20  1  0      
 20 21  2  0      
 21 22  1  0      
 22 23  1  0      
 19 23  1  0      
 24 25  1  0      
 25 26  2  0      
 26 27  1  0      
 23 27  2  0      
 22 24  2  0      
 13 20  1  0      
  8 14  1  0      
M  END

>  <RackCode>
HYCPK72336

>  <Cat. No.>
HY-148561

>  <Product Name>
CDK8-IN-12

>  <ROW>
O

>  <COLUMN>
5

>  <CAS No.>
2613307-67-6

>  <MWt>
381.86

>  <Target>
CDK; GSK-3; PKC

>  <Saltdate>


>  <Smiles>
O=C1NCCC12CCN(C3=C(C4=CC5=CC=CC=C5O4)C=NC=C3Cl)CC2

>  <Solvent>
DMSO Solution

>  <Batch No.>
440287

>  <Quantity>
10mM  * 50uL

>  <Pathway>
Cell Cycle/DNA Damage; Epigenetics; PI3K/Akt/mTOR; Stem Cell/Wnt; TGF-beta/Smad

>  <Synonyms>


>  <Formula>
C21H20ClN3O2

>  <Research_Area>
Cancer

>  <Clinical_Information>
No Development Reported

>  <SUPPLIER>
MedChemExpress

$$$$
Untitled Document
  ChemDraw04152012482D

 26 27  0  0  0  0  0  0  0  0999 V2000
    1.4289   -0.6187    0.0000 C   0  0  0  0  0  0  0  0  0  0  0  0
    2.1434   -1.0313    0.0000 C   0  0  0  0  0  0  0  0  0  0  0  0
    2.1434   -1.8563    0.0000 C   0  0  0  0  0  0  0  0  0  0  0  0
    1.4289   -2.2687    0.0000 C   0  0  0  0  0  0  0  0  0  0  0  0
    0.7145   -1.8563    0.0000 C   0  0  0  0  0  0  0  0  0  0  0  0
    0.7145   -1.0313    0.0000 C   0  0  0  0  0  0  0  0  0  0  0  0
    2.1434    0.6187    0.0000 C   0  0  0  0  0  0  0  0  0  0  0  0
    1.4289    0.2062    0.0000 C   0  0  0  0  0  0  0  0  0  0  0  0
    2.1434    1.4437    0.0000 O   0  0  0  0  0  0  0  0  0  0  0  0
    2.8579    0.2062    0.0000 N   0  0  0  0  0  0  0  0  0  0  0  0
    0.7145    0.6187    0.0000 S   0  0  0  0  0  0  0  0  0  0  0  0
    0.0000    0.2062    0.0000 C   0  0  0  0  0  0  0  0  0  0  0  0
   -0.7145    0.6187    0.0000 C   0  0  0  0  0  0  0  0  0  0  0  0
   -1.4289    0.2062    0.0000 C   0  0  0  0  0  0  0  0  0  0  0  0
   -1.4289   -0.6187    0.0000 C   0  0  0  0  0  0  0  0  0  0  0  0
   -0.7145   -1.0313    0.0000 C   0  0  0  0  0  0  0  0  0  0  0  0
    0.0000   -0.6187    0.0000 N   0  0  0  0  0  0  0  0  0  0  0  0
   -2.1434    0.6187    0.0000 C   0  0  0  0  0  0  0  0  0  0  0  0
   -2.8579    0.2062    0.0000 C   0  0  0  0  0  0  0  0  0  0  0  0
   -0.7145   -1.8563    0.0000 N   0  0  0  0  0  0  0  0  0  0  0  0
    0.0000   -2.2687    0.0000 C   0  0  0  0  0  0  0  0  0  0  0  0
   -1.4289   -2.2687    0.0000 C   0  0  0  0  0  0  0  0  0  0  0  0
   -2.1434   -1.0313    0.0000 C   0  0  0  0  0  0  0  0  0  0  0  0
   -2.8579   -1.4437    0.0000 N   0  0  0  0  0  0  0  0  0  0  0  0
   -0.7145    1.4437    0.0000 C   0  0  0  0  0  0  0  0  0  0  0  0
   -0.7145    2.2687    0.0000 N   0  0  0  0  0  0  0  0  0  0  0  0
  1  2  1  0      
  2  3  2  0      
  3  4  1  0      
  4  5  2  0      
  5  6  1  0      
  1  6  2  0      
  7  8  1  0      
  7  9  2  0      
  7 10  1  0      
  8  1  1  1      
 12 13  1  0      
 13 14  2  0      
 14 15  1  0      
 15 16  2  0      
 16 17  1  0      
 12 17  2  0      
 18 19  1  0      
 14 18  1  0      
 20 21  1  0      
 20 22  1  0      
 16 20  1  0      
 23 24  3  0      
 15 23  1  0      
 25 26  3  0      
 13 25  1  0      
 11 12  1  0      
  8 11  1  0      
M  END

>  <RackCode>
HYCPK72336

>  <Cat. No.>
HY-135146

>  <Product Name>
GSK-3484862

>  <ROW>
P

>  <COLUMN>
5

>  <CAS No.>
2170136-65-7

>  <MWt>
365.45

>  <Target>
DNA Methyltransferase

>  <Saltdate>


>  <Smiles>
O=C(N)[C@H](SC1=NC(N(C)C)=C(C#N)C(CC)=C1C#N)C2=CC=CC=C2

>  <Solvent>
DMSO Solution

>  <Batch No.>
80566

>  <Quantity>
10mM  * 50uL

>  <Pathway>
Epigenetics

>  <Synonyms>


>  <Formula>
C19H19N5OS

>  <Research_Area>
Cancer

>  <Clinical_Information>
No Development Reported

>  <SUPPLIER>
MedChemExpress

$$$$
Untitled Document
  ChemDraw08312116522D

 37 39  0  0  0  0  0  0  0  0999 V2000
    1.3673   -2.4750    0.0000 O   0  0  0  0  0  0  0  0  0  0  0  0
    1.3673   -1.6500    0.0000 C   0  0  0  0  0  0  0  0  0  0  0  0
    2.0818   -1.2375    0.0000 C   0  0  0  0  0  0  0  0  0  0  0  0
    2.0818   -0.4125    0.0000 C   0  0  0  0  0  0  0  0  0  0  0  0
    2.7962    0.0000    0.0000 C   0  0  0  0  0  0  0  0  0  0  0  0
    2.7962    0.8250    0.0000 C   0  0  0  0  0  0  0  0  0  0  0  0
    3.5106    1.2375    0.0000 C   0  0  0  0  0  0  0  0  0  0  0  0
    4.2251    0.8250    0.0000 C   0  0  0  0  0  0  0  0  0  0  0  0
    4.9396    1.2375    0.0000 O   0  0  0  0  0  0  0  0  0  0  0  0
    4.2251    0.0000    0.0000 C   0  0  0  0  0  0  0  0  0  0  0  0
    3.5106   -0.4125    0.0000 C   0  0  0  0  0  0  0  0  0  0  0  0
    1.3673    0.0000    0.0000 O   0  0  0  0  0  0  0  0  0  0  0  0
    0.6529   -0.4125    0.0000 C   0  0  0  0  0  0  0  0  0  0  0  0
    0.6529   -1.2375    0.0000 C   0  0  0  0  0  0  0  0  0  0  0  0
   -0.0616   -1.6500    0.0000 C   0  0  0  0  0  0  0  0  0  0  0  0
   -0.0616   -2.4750    0.0000 O   0  0  0  0  0  0  0  0  0  0  0  0
   -0.7761   -1.2375    0.0000 C   0  0  0  0  0  0  0  0  0  0  0  0
   -0.7761   -0.4125    0.0000 C   0  0  0  0  0  0  0  0  0  0  0  0
   -1.4906    0.0000    0.0000 O   0  0  0  0  0  0  0  0  0  0  0  0
   -0.0616    0.0000    0.0000 C   0  0  0  0  0  0  0  0  0  0  0  0
   -0.0616    0.8250    0.0000 C   0  0  0  0  0  0  0  0  0  0  0  0
   -0.7761    1.2375    0.0000 N   0  0  0  0  0  0  0  0  0  0  0  0
   -0.7761    2.0625    0.0000 C   0  0  0  0  0  0  0  0  0  0  0  0
   -1.4906    2.4750    0.0000 C   0  0  0  0  0  0  0  0  0  0  0  0
   -2.2050    2.0625    0.0000 N   0  0  0  0  0  0  0  0  0  0  0  0
   -2.9194    2.4750    0.0000 C   0  0  0  0  0  0  0  0  0  0  0  0
   -3.6339    2.0625    0.0000 C   0  0  0  0  0  0  0  0  0  0  0  0
   -4.3875    2.3981    0.0000 C   0  0  0  0  0  0  0  0  0  0  0  0
   -4.9396    1.7850    0.0000 C   0  0  0  0  0  0  0  0  0  0  0  0
   -4.5271    1.0705    0.0000 C   0  0  0  0  0  0  0  0  0  0  0  0
   -3.7201    1.2420    0.0000 S   0  0  0  0  0  0  0  0  0  0  0  0
   -2.2050    1.2375    0.0000 C   0  0  0  0  0  0  0  0  0  0  0  0
   -1.4906    0.8250    0.0000 C   0  0  0  0  0  0  0  0  0  0  0  0
   -4.1477   -0.5687    0.0000 H   0  0  0  0  0  0  0  0  0  0  0  0
   -3.3227   -0.5687    0.0000 Cl  0  0  0  0  0  0  0  0  0  0  0  0
   -4.1477   -1.2133    0.0000 H   0  0  0  0  0  0  0  0  0  0  0  0
   -3.3227   -1.2133    0.0000 Cl  0  0  0  0  0  0  0  0  0  0  0  0
  1  2  2  0      
  2  3  1  0      
  3  4  2  0      
  4  5  1  0      
  5  6  2  0      
  6  7  1  0      
  7  8  2  0      
  8  9  1  0      
  8 10  1  0      
 10 11  2  0      
  5 11  1  0      
  4 12  1  0      
 12 13  1  0      
 13 14  2  0      
  2 14  1  0      
 14 15  1  0      
 15 16  1  0      
 15 17  2  0      
 17 18  1  0      
 18 19  1  0      
 18 20  2  0      
 13 20  1  0      
 20 21  1  0      
 21 22  1  0      
 22 23  1  0      
 23 24  1  0      
 24 25  1  0      
 25 26  1  0      
 26 27  1  0      
 27 28  2  0      
 28 29  1  0      
 29 30  2  0      
 30 31  1  0      
 27 31  1  0      
 25 32  1  0      
 32 33  1  0      
 22 33  1  0      
 34 35  1  0      
 36 37  1  0      
M  END

>  <RackCode>
HYCPK72336

>  <Cat. No.>
HY-132297A

>  <Product Name>
PARP1-IN-5 (dihydrochloride)

>  <ROW>
A

>  <COLUMN>
6

>  <CAS No.>
2823308-89-8

>  <MWt>
537.46

>  <Target>
PARP

>  <Saltdate>
Hydrochloride

>  <Smiles>
O=C1C=C(OC2=C1C(O)=CC(O)=C2CN3CCN(CC3)CC4=CC=CS4)C5=CC=C(C=C5)O.[H]Cl.[H]Cl

>  <Solvent>
DMSO Solution

>  <Batch No.>
120254

>  <Quantity>
10mM  * 50uL

>  <Pathway>
Cell Cycle/DNA Damage; Epigenetics

>  <Synonyms>


>  <Formula>
C25H26Cl2N2O5S

>  <Research_Area>
Cancer

>  <Clinical_Information>
No Development Reported

>  <SUPPLIER>
MedChemExpress

$$$$
Untitled Document
  ChemDraw05101917272D

 35 38  0  0  0  0  0  0  0  0999 V2000
   -5.0013   -0.2062    0.0000 O   0  0  0  0  0  0  0  0  0  0  0  0
   -5.0013   -1.0313    0.0000 C   0  0  0  0  0  0  0  0  0  0  0  0
   -4.2868   -1.4437    0.0000 N   0  0  0  0  0  0  0  0  0  0  0  0
   -3.5724   -1.0312    0.0000 C   0  0  0  0  0  0  0  0  0  0  0  0
   -3.5724   -0.2063    0.0000 C   0  0  0  0  0  0  0  0  0  0  0  0
   -2.8579    0.2063    0.0000 C   0  0  0  0  0  0  0  0  0  0  0  0
   -2.1434   -0.2062    0.0000 C   0  0  0  0  0  0  0  0  0  0  0  0
   -2.1434   -1.0312    0.0000 C   0  0  0  0  0  0  0  0  0  0  0  0
   -1.4289   -1.4437    0.0000 O   0  0  0  0  0  0  0  0  0  0  0  0
   -0.7145   -1.0312    0.0000 C   0  0  0  0  0  0  0  0  0  0  0  0
   -0.0000   -1.4437    0.0000 N   0  0  0  0  0  0  0  0  0  0  0  0
    0.7145   -1.0313    0.0000 C   0  0  0  0  0  0  0  0  0  0  0  0
    1.4289   -1.4437    0.0000 N   0  0  0  0  0  0  0  0  0  0  0  0
    2.1434   -1.0313    0.0000 C   0  0  0  0  0  0  0  0  0  0  0  0
    2.1434   -0.2063    0.0000 C   0  0  0  0  0  0  0  0  0  0  0  0
    1.4289    0.2062    0.0000 O   0  0  0  0  0  0  0  0  0  0  0  0
    1.4289    1.0312    0.0000 C   0  0  0  0  0  0  0  0  0  0  0  0
    2.8579    0.2063    0.0000 C   0  0  0  0  0  0  0  0  0  0  0  0
    3.5724   -0.2062    0.0000 C   0  0  0  0  0  0  0  0  0  0  0  0
    4.2868    0.2062    0.0000 N   0  0  0  0  0  0  0  0  0  0  0  0
    4.2868    1.0312    0.0000 C   0  0  0  0  0  0  0  0  0  0  0  0
    5.0013    1.4437    0.0000 C   0  0  0  0  0  0  0  0  0  0  0  0
    5.7158    1.0312    0.0000 N   0  0  0  0  0  0  0  0  0  0  0  0
    6.4302    1.4437    0.0000 C   0  0  0  0  0  0  0  0  0  0  0  0
    5.7158    0.2062    0.0000 C   0  0  0  0  0  0  0  0  0  0  0  0
    5.0013   -0.2063    0.0000 C   0  0  0  0  0  0  0  0  0  0  0  0
    3.5724   -1.0312    0.0000 C   0  0  0  0  0  0  0  0  0  0  0  0
    2.8579   -1.4437    0.0000 C   0  0  0  0  0  0  0  0  0  0  0  0
    0.7145   -0.2063    0.0000 N   0  0  0  0  0  0  0  0  0  0  0  0
   -0.0000    0.2062    0.0000 C   0  0  0  0  0  0  0  0  0  0  0  0
   -0.7145   -0.2063    0.0000 C   0  0  0  0  0  0  0  0  0  0  0  0
   -1.4289    0.2063    0.0000 Cl  0  0  0  0  0  0  0  0  0  0  0  0
   -2.8579   -1.4437    0.0000 C   0  0  0  0  0  0  0  0  0  0  0  0
   -5.7158   -1.4437    0.0000 C   0  0  0  0  0  0  0  0  0  0  0  0
   -6.4302   -1.0313    0.0000 C   0  0  0  0  0  0  0  0  0  0  0  0
  1  2  2  0      
  2  3  1  0      
  3  4  1  0      
  4  5  2  0      
  5  6  1  0      
  6  7  2  0      
  7  8  1  0      
  8  9  1  0      
  9 10  1  0      
 10 11  2  0      
 11 12  1  0      
 12 13  1  0      
 13 14  1  0      
 14 15  2  0      
 15 16  1  0      
 16 17  1  0      
 15 18  1  0      
 18 19  2  0      
 19 20  1  0      
 20 21  1  0      
 21 22  1  0      
 22 23  1  0      
 23 24  1  0      
 23 25  1  0      
 25 26  1  0      
 20 26  1  0      
 19 27  1  0      
 27 28  2  0      
 14 28  1  0      
 12 29  2  0      
 29 30  1  0      
 30 31  2  0      
 10 31  1  0      
 31 32  1  0      
  8 33  2  0      
  4 33  1  0      
  2 34  1  0      
 34 35  1  0      
M  END

>  <RackCode>
HYCPK72336

>  <Cat. No.>
HY-15802

>  <Product Name>
WZ4003

>  <ROW>
B

>  <COLUMN>
6

>  <CAS No.>
1214265-58-3

>  <MWt>
496.99

>  <Target>
AMPK

>  <Saltdate>
Free Base

>  <Smiles>
O=C(NC1=CC=CC(OC2=NC(NC3=C(OC)C=C(N4CCN(C)CC4)C=C3)=NC=C2Cl)=C1)CC

>  <Solvent>
DMSO Solution

>  <Batch No.>
12734

>  <Quantity>
10mM  * 50uL

>  <Pathway>
Epigenetics; PI3K/Akt/mTOR

>  <Synonyms>


>  <Formula>
C25H29ClN6O3

>  <Research_Area>
Cancer

>  <Clinical_Information>
No Development Reported

>  <SUPPLIER>
MedChemExpress

$$$$
Untitled Document
  ChemDraw12181708572D

 26 30  0  0  0  0  0  0  0  0999 V2000
    0.3729   -0.0056    0.0000 C   0  0  0  0  0  0  0  0  0  0  0  0
    0.3729    0.8458    0.0000 C   0  0  0  0  0  0  0  0  0  0  0  0
   -0.3667    0.4191    0.0000 C   0  0  0  0  0  0  0  0  0  0  0  0
   -0.3667   -0.4504    0.0000 C   0  0  0  0  0  0  0  0  0  0  0  0
   -1.1063   -0.8772    0.0000 C   0  0  0  0  0  0  0  0  0  0  0  0
   -1.8480   -0.4504    0.0000 C   0  0  0  0  0  0  0  0  0  0  0  0
   -1.8480    0.4191    0.0000 C   0  0  0  0  0  0  0  0  0  0  0  0
   -1.1063    0.8458    0.0000 C   0  0  0  0  0  0  0  0  0  0  0  0
   -1.8480   -1.3120    0.0000 C   0  0  0  0  0  0  0  0  0  0  0  0
   -0.3667   -1.3120    0.0000 C   0  0  0  0  0  0  0  0  0  0  0  0
   -2.5898   -1.7407    0.0000 C   0  0  0  0  0  0  0  0  0  0  0  0
   -3.3315   -1.3120    0.0000 O   0  0  0  0  0  0  0  0  0  0  0  0
   -1.6249   -2.1421    0.0000 O   0  0  0  0  0  0  0  0  0  0  0  0
   -2.7044   -0.4504    0.0000 H   0  0  0  0  0  0  0  0  0  0  0  0
    0.3729   -0.8772    0.0000 C   0  0  0  0  0  0  0  0  0  0  0  0
    1.1125   -0.4504    0.0000 C   0  0  0  0  0  0  0  0  0  0  0  0
    1.1125    0.4191    0.0000 C   0  0  0  0  0  0  0  0  0  0  0  0
    1.8523    0.8458    0.0000 C   0  0  0  0  0  0  0  0  0  0  0  0
    1.8523    1.7072    0.0000 C   0  0  0  0  0  0  0  0  0  0  0  0
    1.1125    2.1421    0.0000 C   0  0  0  0  0  0  0  0  0  0  0  0
    0.3729    1.7072    0.0000 C   0  0  0  0  0  0  0  0  0  0  0  0
    2.5919    2.1421    0.0000 O   0  0  0  0  0  0  0  0  0  0  0  0
    3.3315    1.7072    0.0000 C   0  0  0  0  0  0  0  0  0  0  0  0
    3.3315    0.8458    0.0000 C   0  0  0  0  0  0  0  0  0  0  0  0
    1.1125    1.2706    0.0000 H   0  0  0  0  0  0  0  0  0  0  0  0
   -0.3667    1.2706    0.0000 H   0  0  0  0  0  0  0  0  0  0  0  0
  2  1  1  1      
  2  3  1  0      
  2 17  1  0      
  2 21  1  0      
  3  4  1  0      
  3  8  1  0      
  3 26  1  6      
  4  5  1  0      
  4 10  1  6      
  4 15  1  0      
  5  6  1  0      
  7  6  1  0      
  6  9  1  0      
  6 14  1  1      
  8  7  1  0      
 10  9  1  0      
  9 11  1  0      
  9 13  1  1      
 11 12  1  0      
 16 15  1  0      
 17 16  1  0      
 17 18  1  0      
 17 25  1  6      
 18 19  2  0      
 18 24  1  0      
 20 19  1  0      
 19 22  1  0      
 21 20  2  0      
 22 23  1  0      
 24 23  2  0      
M  END

>  <RackCode>
HYCPK72336

>  <Cat. No.>
HY-N6258

>  <Product Name>
Kahweol

>  <ROW>
C

>  <COLUMN>
6

>  <CAS No.>
6894-43-5

>  <MWt>
314.42

>  <Target>
AMPK; Apoptosis

>  <Saltdate>


>  <Smiles>
C[C@]12[C@@]3([H])[C@@]4(CC[C@]1([H])C5=C(OC=C5)C=C2)C[C@@]([C@](CO)(O)C4)([H])CC3

>  <Solvent>
DMSO Solution

>  <Batch No.>
266766

>  <Quantity>
10mM  * 50uL

>  <Pathway>
Apoptosis; Epigenetics; PI3K/Akt/mTOR

>  <Synonyms>


>  <Formula>
C20H26O3

>  <Research_Area>
Metabolic Disease; Cancer

>  <Clinical_Information>
No Development Reported

>  <SUPPLIER>
MedChemExpress

$$$$
Untitled Document
  ChemDraw01111616392D

 61 66  0  0  0  0  0  0  0  0999 V2000
    4.4340   -0.8841    0.0000 O   0  0  0  0  0  0  0  0  0  0  0  0
   -3.7188    1.0042    0.0000 C   0  0  0  0  0  0  0  0  0  0  0  0
   -3.0093    1.4159    0.0000 N   0  0  0  0  0  0  0  0  0  0  0  0
   -4.4341    1.4159    0.0000 C   0  0  0  0  0  0  0  0  0  0  0  0
   -3.7188    0.1859    0.0000 O   0  0  0  0  0  0  0  0  0  0  0  0
   -2.2942    1.0042    0.0000 C   0  0  0  0  0  0  0  0  0  0  0  0
   -1.5848    1.4159    0.0000 C   0  0  0  0  0  0  0  0  0  0  0  0
   -2.2942    0.1859    0.0000 C   0  0  0  0  0  0  0  0  0  0  0  0
   -3.0093   -0.2259    0.0000 C   0  0  0  0  0  0  0  0  0  0  0  0
   -3.0093   -1.0499    0.0000 C   0  0  0  0  0  0  0  0  0  0  0  0
   -2.2942   -1.4618    0.0000 C   0  0  0  0  0  0  0  0  0  0  0  0
   -1.5848   -1.0499    0.0000 C   0  0  0  0  0  0  0  0  0  0  0  0
   -1.5848   -0.2259    0.0000 C   0  0  0  0  0  0  0  0  0  0  0  0
   -1.5848    2.2341    0.0000 O   0  0  0  0  0  0  0  0  0  0  0  0
   -0.8812    1.0042    0.0000 C   0  0  0  0  0  0  0  0  0  0  0  0
   -0.1716    1.4159    0.0000 O   0  0  0  0  0  0  0  0  0  0  0  0
   -0.8812    0.1916    0.0000 O   0  0  0  0  0  0  0  0  0  0  0  0
    2.0141    1.8048    0.0000 C   0  0  0  0  0  0  0  0  0  0  0  0
    1.1902    1.8048    0.0000 C   0  0  0  0  0  0  0  0  0  0  0  0
    0.7783    1.0900    0.0000 C   0  0  0  0  0  0  0  0  0  0  0  0
    1.1902    0.3747    0.0000 C   0  0  0  0  0  0  0  0  0  0  0  0
    2.0141    0.3747    0.0000 C   0  0  0  0  0  0  0  0  0  0  0  0
    2.4259    1.0900    0.0000 C   0  0  0  0  0  0  0  0  0  0  0  0
    0.7783    2.5145    0.0000 C   0  0  0  0  0  0  0  0  0  0  0  0
    2.0141   -0.7983    0.0000 O   0  0  0  0  0  0  0  0  0  0  0  0
    2.4201    2.5145    0.0000 C   0  0  0  0  0  0  0  0  0  0  0  0
    3.2383    2.5145    0.0000 C   0  0  0  0  0  0  0  0  0  0  0  0
    2.0141    3.2241    0.0000 O   0  0  0  0  0  0  0  0  0  0  0  0
    3.6446    3.2241    0.0000 O   0  0  0  0  0  0  0  0  0  0  0  0
    3.6502    1.8107    0.0000 C   0  0  0  0  0  0  0  0  0  0  0  0
    3.6159    0.9183    0.0000 C   0  0  0  0  0  0  0  0  0  0  0  0
    3.1008    0.0600    0.0000 C   0  0  0  0  0  0  0  0  0  0  0  0
    4.4340    0.5292    0.0000 C   0  0  0  0  0  0  0  0  0  0  0  0
    4.4111    2.2513    0.0000 C   0  0  0  0  0  0  0  0  0  0  0  0
    5.1778    1.8107    0.0000 C   0  0  0  0  0  0  0  0  0  0  0  0
    5.1778    0.9584    0.0000 C   0  0  0  0  0  0  0  0  0  0  0  0
    4.4111    3.1380    0.0000 O   0  0  0  0  0  0  0  0  0  0  0  0
    4.9033   -0.2831    0.0000 C   0  0  0  0  0  0  0  0  0  0  0  0
    5.6641    0.1174    0.0000 O   0  0  0  0  0  0  0  0  0  0  0  0
    3.6159   -0.1630    0.0000 H   0  0  0  0  0  0  0  0  0  0  0  0
    3.1008   -1.5304    0.0000 O   0  0  0  0  0  0  0  0  0  0  0  0
    2.2543   -2.0228    0.0000 C   0  0  0  0  0  0  0  0  0  0  0  0
    2.2543   -3.0008    0.0000 C   0  0  0  0  0  0  0  0  0  0  0  0
    1.4075   -1.5304    0.0000 O   0  0  0  0  0  0  0  0  0  0  0  0
    1.5390   -3.4129    0.0000 C   0  0  0  0  0  0  0  0  0  0  0  0
    1.5390   -4.2367    0.0000 C   0  0  0  0  0  0  0  0  0  0  0  0
    2.2543   -4.6488    0.0000 C   0  0  0  0  0  0  0  0  0  0  0  0
    2.9693   -4.2367    0.0000 C   0  0  0  0  0  0  0  0  0  0  0  0
    2.9693   -3.4129    0.0000 C   0  0  0  0  0  0  0  0  0  0  0  0
    2.4279    3.9348    0.0000 C   0  0  0  0  0  0  0  0  0  0  0  0
    2.0194    4.6488    0.0000 O   0  0  0  0  0  0  0  0  0  0  0  0
    3.2505    3.9318    0.0000 C   0  0  0  0  0  0  0  0  0  0  0  0
    3.8638    2.6080    0.0000 C   0  0  0  0  0  0  0  0  0  0  0  0
    5.1465   -1.2953    0.0000 C   0  0  0  0  0  0  0  0  0  0  0  0
    5.1465   -2.1179    0.0000 O   0  0  0  0  0  0  0  0  0  0  0  0
    5.8589   -0.8841    0.0000 C   0  0  0  0  0  0  0  0  0  0  0  0
   -5.1460    1.0039    0.0000 C   0  0  0  0  0  0  0  0  0  0  0  0
   -4.4351    2.2386    0.0000 C   0  0  0  0  0  0  0  0  0  0  0  0
   -5.8589    1.4142    0.0000 C   0  0  0  0  0  0  0  0  0  0  0  0
    2.9532    1.0900    0.0000 C   0  0  0  0  0  0  0  0  0  0  0  0
    2.6898    1.5466    0.0000 C   0  0  0  0  0  0  0  0  0  0  0  0
  3  6  1  0      
  6  7  1  0      
  6  8  1  6      
  8  9  2  0      
  9 10  1  0      
 10 11  2  0      
 11 12  1  0      
 12 13  2  0      
 13  8  1  0      
  7 14  1  1      
  7 15  1  0      
 15 16  1  0      
 15 17  2  0      
 18 19  2  0      
 19 20  1  0      
 20 21  1  0      
 21 22  1  0      
 22 23  1  0      
 23 18  1  0      
 20 16  1  6      
 19 24  1  0      
 22 25  1  1      
 18 26  1  0      
 26 27  1  0      
 26 28  1  1      
 27 29  2  0      
 27 30  1  0      
 30 31  1  0      
 22 32  1  0      
 32 31  1  0      
 31 33  1  0      
 30 34  1  0      
 34 35  1  0      
 35 36  1  0      
 36 33  1  0      
 34 37  1  1      
 33 38  1  1      
 36 39  1  1      
 38 39  1  0      
 31 40  1  6      
 32 41  1  6      
 41 42  1  0      
 42 43  1  0      
 42 44  2  0      
 43 45  2  0      
 45 46  1  0      
 46 47  2  0      
 47 48  1  0      
 48 49  2  0      
 49 43  1  0      
  2  3  1  0      
  2  4  1  0      
  2  5  2  0      
 33  1  1  6      
 28 50  1  0      
 50 51  2  0      
 50 52  1  0      
 30 53  1  1      
  1 54  1  0      
 54 55  2  0      
 54 56  1  0      
  4 57  2  0      
  4 58  1  0      
 57 59  1  0      
 23 60  1  0      
 23 61  1  0      
M  END

>  <RackCode>
HYCPK72336

>  <Cat. No.>
HY-77554

>  <Product Name>
Cephalomannine

>  <ROW>
D

>  <COLUMN>
6

>  <CAS No.>
71610-00-9

>  <MWt>
831.90

>  <Target>
HIF/HIF Prolyl-Hydroxylase; Microtubule/Tubulin

>  <Saltdate>
Free Base

>  <Smiles>
O=C(/C(C)=C/C)N[C@@H](C1=CC=CC=C1)[C@H](C(O[C@@H]2C(C)=C([C@@H](OC(C)=O)C([C@@]3(C)[C@]([C@](OC(C)=O)(CO4)[C@H]4C[C@@H]3O)([H])[C@@H]5OC(C6=CC=CC=C6)=O)=O)C(C)(C)[C@@]5(O)C2)=O)O

>  <Solvent>
DMSO Solution

>  <Batch No.>
25853

>  <Quantity>
10mM  * 50uL

>  <Pathway>
Cell Cycle/DNA Damage; Cytoskeleton; Metabolic Enzyme/Protease

>  <Synonyms>


>  <Formula>
C45H53NO14

>  <Research_Area>
Cancer

>  <Clinical_Information>
No Development Reported

>  <SUPPLIER>
MedChemExpress

$$$$
Untitled Document
  ChemDraw12241912372D

 35 41  0  0  0  0  0  0  0  0999 V2000
    0.9079   -2.4255    0.0000 C   0  0  0  0  0  0  0  0  0  0  0  0
    0.9079   -3.2505    0.0000 O   0  0  0  0  0  0  0  0  0  0  0  0
   -1.9500   -2.4255    0.0000 O   0  0  0  0  0  0  0  0  0  0  0  0
   -2.6645   -2.0130    0.0000 C   0  0  0  0  0  0  0  0  0  0  0  0
   -2.6645   -1.1880    0.0000 C   0  0  0  0  0  0  0  0  0  0  0  0
   -1.9500   -0.7755    0.0000 N   0  0  0  0  0  0  0  0  0  0  0  0
   -1.2356   -1.1880    0.0000 C   0  0  0  0  0  0  0  0  0  0  0  0
   -1.2356   -2.0130    0.0000 C   0  0  0  0  0  0  0  0  0  0  0  0
   -0.5211   -0.7755    0.0000 C   0  0  0  0  0  0  0  0  0  0  0  0
    0.1934   -1.1880    0.0000 C   0  0  0  0  0  0  0  0  0  0  0  0
    0.1934   -2.0130    0.0000 C   0  0  0  0  0  0  0  0  0  0  0  0
   -0.5211   -2.4255    0.0000 C   0  0  0  0  0  0  0  0  0  0  0  0
   -1.6468   -0.0072    0.0000 C   0  0  0  0  0  0  0  0  0  0  0  0
   -0.8218   -0.0072    0.0000 N   0  0  0  0  0  0  0  0  0  0  0  0
   -1.7237    1.4609    0.0000 N   0  0  0  0  0  0  0  0  0  0  0  0
   -2.0593    0.7073    0.0000 C   0  0  0  0  0  0  0  0  0  0  0  0
   -2.8797    0.7935    0.0000 C   0  0  0  0  0  0  0  0  0  0  0  0
   -3.0513    1.6005    0.0000 C   0  0  0  0  0  0  0  0  0  0  0  0
   -3.7657    2.0130    0.0000 C   0  0  0  0  0  0  0  0  0  0  0  0
   -3.7657    2.8380    0.0000 C   0  0  0  0  0  0  0  0  0  0  0  0
   -3.0513    3.2505    0.0000 C   0  0  0  0  0  0  0  0  0  0  0  0
   -2.3368    2.8380    0.0000 C   0  0  0  0  0  0  0  0  0  0  0  0
   -2.3368    2.0130    0.0000 C   0  0  0  0  0  0  0  0  0  0  0  0
   -0.9167    1.6325    0.0000 C   0  0  0  0  0  0  0  0  0  0  0  0
   -0.3647    1.0194    0.0000 C   0  0  0  0  0  0  0  0  0  0  0  0
    0.4199    0.7644    0.0000 C   0  0  0  0  0  0  0  0  0  0  0  0
   -0.1932    0.2124    0.0000 C   0  0  0  0  0  0  0  0  0  0  0  0
   -1.6223    3.2505    0.0000 Cl  0  0  0  0  0  0  0  0  0  0  0  0
    1.6223   -2.0130    0.0000 N   0  0  0  0  0  0  0  0  0  0  0  0
    2.3368   -2.4255    0.0000 C   0  0  0  0  0  0  0  0  0  0  0  0
    3.0513   -2.0130    0.0000 C   0  0  0  0  0  0  0  0  0  0  0  0
    3.0513   -1.1880    0.0000 C   0  0  0  0  0  0  0  0  0  0  0  0
    2.3368   -0.7755    0.0000 C   0  0  0  0  0  0  0  0  0  0  0  0
    1.6223   -1.1880    0.0000 C   0  0  0  0  0  0  0  0  0  0  0  0
    3.7657   -2.4255    0.0000 N   0  0  0  0  0  0  0  0  0  0  0  0
  1  2  2  0      
  3  4  1  0      
  4  5  1  0      
  5  6  1  0      
  6  7  1  0      
  7  8  1  0      
  3  8  1  0      
  9 10  1  0      
 10 11  2  0      
 11 12  1  0      
 12  8  2  0      
  9  7  2  0      
 13 14  2  0      
 13  6  1  0      
 14  9  1  0      
 15 16  1  0      
 16 17  2  0      
 17 18  1  0      
 18 19  1  0      
 19 20  2  0      
 20 21  1  0      
 21 22  2  0      
 22 23  1  0      
 15 23  1  0      
 18 23  2  0      
 25 26  1  0      
 26 27  1  0      
 25 27  1  0      
 24 25  1  0      
 15 24  1  0      
 22 28  1  0      
 13 16  1  0      
  1 11  1  0      
 29 30  1  0      
 30 31  1  0      
 31 32  1  0      
 32 33  1  0      
 33 34  1  0      
 29 34  1  0      
 31 35  1  1      
  1 29  1  0      
M  END

>  <RackCode>
HYCPK72336

>  <Cat. No.>
HY-135304

>  <Product Name>
PAD-IN-2

>  <ROW>
E

>  <COLUMN>
6

>  <CAS No.>
2304852-21-7

>  <MWt>
490.00

>  <Target>
Protein Arginine Deiminase

>  <Saltdate>


>  <Smiles>
O=C(N1C[C@H](N)CCC1)C2=CC3=C4N(C(C(N5CC6CC6)=CC7=C5C(Cl)=CC=C7)=N3)CCOC4=C2

>  <Solvent>
DMSO Solution

>  <Batch No.>
246119

>  <Quantity>
10mM  * 50uL

>  <Pathway>
Epigenetics

>  <Synonyms>


>  <Formula>
C27H28ClN5O2

>  <Research_Area>
Cancer; Inflammation/Immunology

>  <Clinical_Information>
No Development Reported

>  <SUPPLIER>
MedChemExpress

$$$$
Untitled Document
  ChemDraw01191615382D

 26 27  0  0  0  0  0  0  0  0999 V2000
   -1.4289    0.6188    0.0000 C   0  0  0  0  0  0  0  0  0  0  0  0
   -2.1433    0.2062    0.0000 C   0  0  0  0  0  0  0  0  0  0  0  0
   -2.1433   -0.6187    0.0000 C   0  0  0  0  0  0  0  0  0  0  0  0
   -2.8578   -1.0313    0.0000 C   0  0  0  0  0  0  0  0  0  0  0  0
   -3.5724   -0.6187    0.0000 C   0  0  0  0  0  0  0  0  0  0  0  0
   -3.5724    0.2062    0.0000 C   0  0  0  0  0  0  0  0  0  0  0  0
   -2.8578    0.6188    0.0000 C   0  0  0  0  0  0  0  0  0  0  0  0
   -1.4289    1.4438    0.0000 O   0  0  0  0  0  0  0  0  0  0  0  0
   -0.7145    0.2062    0.0000 N   0  0  0  0  0  0  0  0  0  0  0  0
   -4.2869   -1.0313    0.0000 C   0  0  0  0  0  0  0  0  0  0  0  0
   -4.2869   -1.8562    0.0000 C   0  0  0  0  0  0  0  0  0  0  0  0
   -5.0014   -1.4437    0.0000 C   0  0  0  0  0  0  0  0  0  0  0  0
   -5.0014   -0.6187    0.0000 C   0  0  0  0  0  0  0  0  0  0  0  0
    0.0000    0.6188    0.0000 C   0  0  0  0  0  0  0  0  0  0  0  0
    0.0000    1.4438    0.0000 S   0  0  0  0  0  0  0  0  0  0  0  0
    0.7145    0.2062    0.0000 N   0  0  0  0  0  0  0  0  0  0  0  0
    1.4289    0.6188    0.0000 C   0  0  0  0  0  0  0  0  0  0  0  0
    1.4289    1.4438    0.0000 C   0  0  0  0  0  0  0  0  0  0  0  0
    2.1433    1.8562    0.0000 C   0  0  0  0  0  0  0  0  0  0  0  0
    2.8578    1.4438    0.0000 C   0  0  0  0  0  0  0  0  0  0  0  0
    2.8578    0.6188    0.0000 C   0  0  0  0  0  0  0  0  0  0  0  0
    2.1433    0.2062    0.0000 C   0  0  0  0  0  0  0  0  0  0  0  0
    3.5723    1.8562    0.0000 N   0  0  0  0  0  0  0  0  0  0  0  0
    4.2869    1.4438    0.0000 C   0  0  0  0  0  0  0  0  0  0  0  0
    4.2869    0.6188    0.0000 O   0  0  0  0  0  0  0  0  0  0  0  0
    5.0014    1.8562    0.0000 C   0  0  0  0  0  0  0  0  0  0  0  0
  1  2  1  0      
  2  3  1  0      
  3  4  2  0      
  4  5  1  0      
  5  6  2  0      
  6  7  1  0      
  2  7  2  0      
  1  8  2  0      
  1  9  1  0      
 10 11  1  0      
 10 12  1  0      
 10 13  1  0      
  5 10  1  0      
 14 15  2  0      
 17 18  1  0      
 18 19  2  0      
 19 20  1  0      
 20 21  2  0      
 21 22  1  0      
 17 22  2  0      
 24 25  2  0      
 24 26  1  0      
 23 24  1  0      
 20 23  1  0      
 16 17  1  0      
 14 16  1  0      
  9 14  1  0      
M  END

>  <RackCode>
HYCPK72336

>  <Cat. No.>
HY-13423

>  <Product Name>
Tenovin-1

>  <ROW>
F

>  <COLUMN>
6

>  <CAS No.>
380315-80-0

>  <MWt>
369.48

>  <Target>
Autophagy; Dihydroorotate Dehydrogenase; MDM-2/p53; Sirtuin

>  <Saltdate>
Free Base

>  <Smiles>
O=C(NC(NC1=CC=C(NC(C)=O)C=C1)=S)C2=CC=C(C(C)(C)C)C=C2

>  <Solvent>
DMSO Solution

>  <Batch No.>
113536

>  <Quantity>
10mM  * 50uL

>  <Pathway>
Apoptosis; Autophagy; Cell Cycle/DNA Damage; Epigenetics; Metabolic Enzyme/Protease

>  <Synonyms>


>  <Formula>
C20H23N3O2S

>  <Research_Area>
Cancer

>  <Clinical_Information>
No Development Reported

>  <SUPPLIER>
MedChemExpress

$$$$
Untitled Document
  ChemDraw10262215272D

 24 25  0  0  0  0  0  0  0  0999 V2000
   -2.8580   -0.2062    0.0000 C   0  0  0  0  0  0  0  0  0  0  0  0
   -2.8580   -1.0313    0.0000 C   0  0  0  0  0  0  0  0  0  0  0  0
   -3.5725   -1.4437    0.0000 C   0  0  0  0  0  0  0  0  0  0  0  0
   -4.2869   -1.0313    0.0000 C   0  0  0  0  0  0  0  0  0  0  0  0
   -4.2869   -0.2062    0.0000 C   0  0  0  0  0  0  0  0  0  0  0  0
   -5.0014    0.2062    0.0000 C   0  0  0  0  0  0  0  0  0  0  0  0
   -5.0014    1.0313    0.0000 C   0  0  0  0  0  0  0  0  0  0  0  0
   -4.2869    1.4437    0.0000 C   0  0  0  0  0  0  0  0  0  0  0  0
   -3.5725    1.0313    0.0000 C   0  0  0  0  0  0  0  0  0  0  0  0
   -3.5725    0.2062    0.0000 C   0  0  0  0  0  0  0  0  0  0  0  0
   -2.1435    0.2062    0.0000 C   0  0  0  0  0  0  0  0  0  0  0  0
   -2.1435    1.0313    0.0000 O   0  0  0  0  0  0  0  0  0  0  0  0
   -1.4289   -0.2062    0.0000 N   0  0  0  0  0  0  0  0  0  0  0  0
   -0.7145    0.2062    0.0000 C   0  0  0  0  0  0  0  0  0  0  0  0
   -0.0000   -0.2062    0.0000 C   0  0  0  0  0  0  0  0  0  0  0  0
    0.7145    0.2062    0.0000 N   0  0  0  0  0  0  0  0  0  0  0  0
    0.7145    1.0313    0.0000 C   0  0  0  0  0  0  0  0  0  0  0  0
    1.4289   -0.2062    0.0000 C   0  0  0  0  0  0  0  0  0  0  0  0
    2.1435    0.2062    0.0000 C   0  0  0  0  0  0  0  0  0  0  0  0
    2.8580   -0.2062    0.0000 C   0  0  0  0  0  0  0  0  0  0  0  0
    3.5725    0.2062    0.0000 C   0  0  0  0  0  0  0  0  0  0  0  0
    3.5725    1.0313    0.0000 O   0  0  0  0  0  0  0  0  0  0  0  0
    4.2869   -0.2062    0.0000 N   0  0  0  0  0  0  0  0  0  0  0  0
    5.0014    0.2062    0.0000 O   0  0  0  0  0  0  0  0  0  0  0  0
  1  2  1  0      
  2  3  2  0      
  3  4  1  0      
  4  5  2  0      
  5  6  1  0      
  6  7  2  0      
  7  8  1  0      
  8  9  2  0      
  9 10  1  0      
  1 10  2  0      
  5 10  1  0      
  1 11  1  0      
 11 12  2  0      
 11 13  1  0      
 14 15  1  0      
 16 17  1  0      
 18 19  1  0      
 19 20  1  0      
 20 21  1  0      
 21 22  2  0      
 23 24  1  0      
 21 23  1  0      
 16 18  1  0      
 15 16  1  0      
 13 14  1  0      
M  END

>  <RackCode>
HYCPK72336

>  <Cat. No.>
HY-151590

>  <Product Name>
DKFZ-748

>  <ROW>
G

>  <COLUMN>
6

>  <CAS No.>
2490709-68-5

>  <MWt>
329.39

>  <Target>
HDAC

>  <Saltdate>


>  <Smiles>
O=C(NCCN(CCCC(NO)=O)C)C1=C2C=CC=CC2=CC=C1

>  <Solvent>
DMSO Solution

>  <Batch No.>
273287

>  <Quantity>
10mM  * 50uL

>  <Pathway>
Cell Cycle/DNA Damage; Epigenetics

>  <Synonyms>


>  <Formula>
C18H23N3O3

>  <Research_Area>
Cancer

>  <Clinical_Information>
No Development Reported

>  <SUPPLIER>
MedChemExpress

$$$$
Untitled Document
  ChemDraw11011613212D

 29 33  0  0  0  0  0  0  0  0999 V2000
    2.1283    2.5928    0.0000 N   0  0  0  0  0  0  0  0  0  0  0  0
    2.9325    2.4092    0.0000 C   0  0  0  0  0  0  0  0  0  0  0  0
    3.2905    1.6659    0.0000 C   0  0  0  0  0  0  0  0  0  0  0  0
    2.9325    0.9226    0.0000 C   0  0  0  0  0  0  0  0  0  0  0  0
    2.1283    0.7390    0.0000 N   0  0  0  0  0  0  0  0  0  0  0  0
    1.4833    1.2534    0.0000 C   0  0  0  0  0  0  0  0  0  0  0  0
    1.4833    2.0784    0.0000 C   0  0  0  0  0  0  0  0  0  0  0  0
    0.7688    0.8409    0.0000 C   0  0  0  0  0  0  0  0  0  0  0  0
    0.0543    1.2534    0.0000 C   0  0  0  0  0  0  0  0  0  0  0  0
    0.0543    2.0784    0.0000 C   0  0  0  0  0  0  0  0  0  0  0  0
    0.7688    2.4909    0.0000 C   0  0  0  0  0  0  0  0  0  0  0  0
    3.4469    3.0541    0.0000 O   0  0  0  0  0  0  0  0  0  0  0  0
    0.5973   -2.4411    0.0000 N   0  0  0  0  0  0  0  0  0  0  0  0
   -0.2232   -2.5273    0.0000 N   0  0  0  0  0  0  0  0  0  0  0  0
   -0.5588   -1.7737    0.0000 C   0  0  0  0  0  0  0  0  0  0  0  0
    0.0543   -1.2216    0.0000 C   0  0  0  0  0  0  0  0  0  0  0  0
    0.0543   -0.3966    0.0000 C   0  0  0  0  0  0  0  0  0  0  0  0
    0.7688    0.0159    0.0000 C   0  0  0  0  0  0  0  0  0  0  0  0
    1.4833   -0.3966    0.0000 C   0  0  0  0  0  0  0  0  0  0  0  0
    1.4833   -1.2216    0.0000 C   0  0  0  0  0  0  0  0  0  0  0  0
    0.7688   -1.6341    0.0000 C   0  0  0  0  0  0  0  0  0  0  0  0
   -2.6932   -1.7417    0.0000 N   0  0  0  0  0  0  0  0  0  0  0  0
   -2.5218   -0.9347    0.0000 N   0  0  0  0  0  0  0  0  0  0  0  0
   -1.7013   -0.8485    0.0000 C   0  0  0  0  0  0  0  0  0  0  0  0
   -1.3657   -1.6021    0.0000 C   0  0  0  0  0  0  0  0  0  0  0  0
   -1.9788   -2.1542    0.0000 C   0  0  0  0  0  0  0  0  0  0  0  0
   -3.4469   -2.0772    0.0000 C   0  0  0  0  0  0  0  0  0  0  0  0
    1.1493   -3.0541    0.0000 C   0  0  0  0  0  0  0  0  0  0  0  0
    3.4469    0.2776    0.0000 C   0  0  0  0  0  0  0  0  0  0  0  0
  1  2  1  0      
  2  3  1  0      
  3  4  1  0      
  4  5  1  0      
  5  6  1  0      
  6  7  1  0      
  1  7  1  0      
  8  9  1  0      
  9 10  2  0      
 10 11  1  0      
  7 11  2  0      
  6  8  2  0      
  2 12  2  0      
 13 14  1  0      
 14 15  2  0      
 15 16  1  0      
 16 17  1  0      
 17 18  2  0      
 18 19  1  0      
 19 20  2  0      
 20 21  1  0      
 13 21  1  0      
 16 21  2  0      
 22 23  1  0      
 23 24  2  0      
 24 25  1  0      
 25 26  2  0      
 22 26  1  0      
 22 27  1  0      
 15 25  1  0      
 13 28  1  0      
  8 18  1  0      
  4 29  1  1      
M  END

>  <RackCode>
HYCPK72336

>  <Cat. No.>
HY-100482

>  <Product Name>
CPI-637

>  <ROW>
H

>  <COLUMN>
6

>  <CAS No.>
1884712-47-3

>  <MWt>
386.45

>  <Target>
Epigenetic Reader Domain; Histone Acetyltransferase

>  <Saltdate>
Free Base

>  <Smiles>
O=C1NC2=CC=CC(C3=CC4=C(N(C)N=C4C5=CN(C)N=C5)C=C3)=C2N[C@H](C)C1

>  <Solvent>
DMSO Solution

>  <Batch No.>
41076

>  <Quantity>
10mM  * 50uL

>  <Pathway>
Epigenetics

>  <Synonyms>


>  <Formula>
C22H22N6O

>  <Research_Area>
Cancer

>  <Clinical_Information>
No Development Reported

>  <SUPPLIER>
MedChemExpress

$$$$
Untitled Document
  ChemDraw03242414122D

 54 59  0  0  0  0  0  0  0  0999 V2000
    3.4319   -1.3213    0.0000 C   0  0  0  0  0  0  0  0  0  0  0  0
    2.7175   -1.7338    0.0000 C   0  0  0  0  0  0  0  0  0  0  0  0
    3.4319   -0.4963    0.0000 O   0  0  0  0  0  0  0  0  0  0  0  0
    2.0030   -1.3213    0.0000 N   0  0  0  0  0  0  0  0  0  0  0  0
    2.7175   -2.5588    0.0000 C   0  0  0  0  0  0  0  0  0  0  0  0
    1.2885   -1.7338    0.0000 C   0  0  0  0  0  0  0  0  0  0  0  0
    3.4319   -2.9713    0.0000 C   0  0  0  0  0  0  0  0  0  0  0  0
    2.0030   -2.9713    0.0000 C   0  0  0  0  0  0  0  0  0  0  0  0
    2.7175   -3.3838    0.0000 C   0  0  0  0  0  0  0  0  0  0  0  0
    0.5740   -1.3213    0.0000 C   0  0  0  0  0  0  0  0  0  0  0  0
    1.2885   -2.5588    0.0000 O   0  0  0  0  0  0  0  0  0  0  0  0
    5.0716   -0.5913    0.0000 C   0  0  0  0  0  0  0  0  0  0  0  0
    4.4585   -0.0392    0.0000 N   0  0  0  0  0  0  0  0  0  0  0  0
    5.8562   -0.3363    0.0000 O   0  0  0  0  0  0  0  0  0  0  0  0
    4.6300    0.7677    0.0000 C   0  0  0  0  0  0  0  0  0  0  0  0
    5.4146    1.0227    0.0000 C   0  0  0  0  0  0  0  0  0  0  0  0
    5.3751   -3.4795    0.0000 O   0  0  0  0  0  0  0  0  0  0  0  0
    2.9784    4.2088    0.0000 C   0  0  0  0  0  0  0  0  0  0  0  0
   -1.5694   -4.2088    0.0000 N   0  0  0  0  0  0  0  0  0  0  0  0
   -3.7128   -1.3213    0.0000 O   0  0  0  0  0  0  0  0  0  0  0  0
    4.1464   -1.7338    0.0000 N   0  0  0  0  0  0  0  0  0  0  0  0
    4.9001   -1.3982    0.0000 C   0  0  0  0  0  0  0  0  0  0  0  0
    4.2326   -2.5543    0.0000 C   0  0  0  0  0  0  0  0  0  0  0  0
    5.4521   -2.0114    0.0000 C   0  0  0  0  0  0  0  0  0  0  0  0
    5.0396   -2.7258    0.0000 C   0  0  0  0  0  0  0  0  0  0  0  0
    4.0169    1.3198    0.0000 C   0  0  0  0  0  0  0  0  0  0  0  0
    4.1884    2.1267    0.0000 C   0  0  0  0  0  0  0  0  0  0  0  0
    3.2323    1.0648    0.0000 C   0  0  0  0  0  0  0  0  0  0  0  0
    3.5754    2.6788    0.0000 C   0  0  0  0  0  0  0  0  0  0  0  0
    2.6192    1.6169    0.0000 C   0  0  0  0  0  0  0  0  0  0  0  0
    2.7907    2.4238    0.0000 C   0  0  0  0  0  0  0  0  0  0  0  0
   -0.1405   -1.7338    0.0000 N   0  0  0  0  0  0  0  0  0  0  0  0
   -0.8549   -1.3213    0.0000 C   0  0  0  0  0  0  0  0  0  0  0  0
   -0.1405   -2.5588    0.0000 C   0  0  0  0  0  0  0  0  0  0  0  0
   -1.5694   -1.7338    0.0000 C   0  0  0  0  0  0  0  0  0  0  0  0
   -0.8549   -2.9713    0.0000 C   0  0  0  0  0  0  0  0  0  0  0  0
   -1.5694   -2.5588    0.0000 N   0  0  0  0  0  0  0  0  0  0  0  0
    2.1776    2.9759    0.0000 C   0  0  0  0  0  0  0  0  0  0  0  0
    2.2639    3.7963    0.0000 C   0  0  0  0  0  0  0  0  0  0  0  0
    1.3707    2.8043    0.0000 S   0  0  0  0  0  0  0  0  0  0  0  0
    1.5102    4.1319    0.0000 N   0  0  0  0  0  0  0  0  0  0  0  0
    0.9582    3.5188    0.0000 C   0  0  0  0  0  0  0  0  0  0  0  0
   -2.2839   -2.9713    0.0000 C   0  0  0  0  0  0  0  0  0  0  0  0
   -2.9983   -2.5588    0.0000 C   0  0  0  0  0  0  0  0  0  0  0  0
   -2.2839   -3.7963    0.0000 C   0  0  0  0  0  0  0  0  0  0  0  0
   -3.7128   -2.9713    0.0000 C   0  0  0  0  0  0  0  0  0  0  0  0
   -2.9983   -4.2088    0.0000 N   0  0  0  0  0  0  0  0  0  0  0  0
   -3.7128   -3.7963    0.0000 N   0  0  0  0  0  0  0  0  0  0  0  0
   -4.4272   -2.5588    0.0000 C   0  0  0  0  0  0  0  0  0  0  0  0
   -4.4272   -1.7338    0.0000 C   0  0  0  0  0  0  0  0  0  0  0  0
   -5.1417   -2.9713    0.0000 C   0  0  0  0  0  0  0  0  0  0  0  0
   -5.1417   -1.3213    0.0000 C   0  0  0  0  0  0  0  0  0  0  0  0
   -5.8562   -2.5588    0.0000 C   0  0  0  0  0  0  0  0  0  0  0  0
   -5.8562   -1.7338    0.0000 C   0  0  0  0  0  0  0  0  0  0  0  0
  1  2  1  0      
  1  3  2  0      
  1 21  1  0      
  2  4  1  0      
  2  5  1  6      
  4  6  1  0      
  5  7  1  0      
  5  8  1  0      
  5  9  1  0      
  6 10  1  0      
  6 11  2  0      
 10 32  1  0      
 12 13  1  0      
 12 14  2  0      
 22 12  1  6      
 13 15  1  0      
 15 16  1  6      
 15 26  1  0      
 25 17  1  1      
 18 39  1  0      
 19 45  1  0      
 20 50  1  0      
 21 22  1  0      
 21 23  1  0      
 22 24  1  0      
 23 25  1  0      
 24 25  1  0      
 26 27  2  0      
 26 28  1  0      
 27 29  1  0      
 28 30  2  0      
 29 31  2  0      
 30 31  1  0      
 31 38  1  0      
 32 33  1  0      
 32 34  1  0      
 33 35  1  0      
 34 36  1  0      
 35 37  1  0      
 36 37  1  0      
 37 43  1  0      
 38 39  2  0      
 38 40  1  0      
 39 41  1  0      
 40 42  1  0      
 41 42  2  0      
 43 44  1  0      
 43 45  2  0      
 44 46  2  0      
 45 47  1  0      
 46 48  1  0      
 46 49  1  0      
 47 48  2  0      
 49 50  2  0      
 49 51  1  0      
 50 52  1  0      
 51 53  2  0      
 52 54  2  0      
 53 54  1  0      
M  END

>  <RackCode>
HYCPK72336

>  <Cat. No.>
HY-145388

>  <Product Name>
AU-15330

>  <ROW>
I

>  <COLUMN>
6

>  <CAS No.>
2380274-50-8

>  <MWt>
755.93

>  <Target>
Epigenetic Reader Domain; PROTACs

>  <Saltdate>


>  <Smiles>
O=C(N(C[C@@H]1O)[C@@H](C1)C(N[C@H](C2=CC=C(C(SC=N3)=C3C)C=C2)C)=O)[C@H](C(C)(C)C)NC(CN4CCN(C(C=C(C(C=CC=C5)=C5O)N=N6)=C6N)CC4)=O

>  <Solvent>
DMSO Solution

>  <Batch No.>
145137

>  <Quantity>
10mM  * 50uL

>  <Pathway>
Epigenetics; PROTAC

>  <Synonyms>


>  <Formula>
C39H49N9O5S

>  <Research_Area>
Cancer

>  <Clinical_Information>
No Development Reported

>  <SUPPLIER>
MedChemExpress

$$$$
Untitled Document
  ChemDraw04262213292D

 31 33  0  0  0  0  0  0  0  0999 V2000
    0.7145   -0.6187    0.0000 C   0  0  0  0  0  0  0  0  0  0  0  0
    0.0000   -1.0313    0.0000 N   0  0  0  0  0  0  0  0  0  0  0  0
   -0.7145   -0.6187    0.0000 C   0  0  0  0  0  0  0  0  0  0  0  0
   -0.7145    0.2062    0.0000 C   0  0  0  0  0  0  0  0  0  0  0  0
    0.0000    0.6187    0.0000 C   0  0  0  0  0  0  0  0  0  0  0  0
    0.7145    0.2062    0.0000 N   0  0  0  0  0  0  0  0  0  0  0  0
    1.4289   -1.0313    0.0000 N   0  0  0  0  0  0  0  0  0  0  0  0
    2.1433   -0.6187    0.0000 C   0  0  0  0  0  0  0  0  0  0  0  0
    2.1433    0.2062    0.0000 C   0  0  0  0  0  0  0  0  0  0  0  0
    2.8578    0.6187    0.0000 C   0  0  0  0  0  0  0  0  0  0  0  0
    3.5723    0.2062    0.0000 C   0  0  0  0  0  0  0  0  0  0  0  0
    3.5723   -0.6187    0.0000 C   0  0  0  0  0  0  0  0  0  0  0  0
    2.8578   -1.0313    0.0000 C   0  0  0  0  0  0  0  0  0  0  0  0
    4.2867   -1.0313    0.0000 O   0  0  0  0  0  0  0  0  0  0  0  0
    5.0011   -0.6187    0.0000 C   0  0  0  0  0  0  0  0  0  0  0  0
    4.2867    0.6187    0.0000 O   0  0  0  0  0  0  0  0  0  0  0  0
    5.0011    0.2062    0.0000 C   0  0  0  0  0  0  0  0  0  0  0  0
    2.8578    1.4437    0.0000 O   0  0  0  0  0  0  0  0  0  0  0  0
    2.1433    1.8562    0.0000 C   0  0  0  0  0  0  0  0  0  0  0  0
   -1.4289   -1.0313    0.0000 O   0  0  0  0  0  0  0  0  0  0  0  0
   -2.1433   -0.6187    0.0000 C   0  0  0  0  0  0  0  0  0  0  0  0
   -2.8578   -1.0313    0.0000 C   0  0  0  0  0  0  0  0  0  0  0  0
   -3.5723   -0.6187    0.0000 C   0  0  0  0  0  0  0  0  0  0  0  0
   -3.5723    0.2062    0.0000 C   0  0  0  0  0  0  0  0  0  0  0  0
   -2.8578    0.6187    0.0000 C   0  0  0  0  0  0  0  0  0  0  0  0
   -2.1433    0.2062    0.0000 C   0  0  0  0  0  0  0  0  0  0  0  0
   -4.2867    0.6187    0.0000 N   0  3  0  0  0  0  0  0  0  0  0  0
   -4.2867    1.4437    0.0000 O   0  0  0  0  0  0  0  0  0  0  0  0
   -5.0011    0.2062    0.0000 O   0  5  0  0  0  0  0  0  0  0  0  0
   -2.8578   -1.8562    0.0000 F   0  0  0  0  0  0  0  0  0  0  0  0
   -1.4289    0.6187    0.0000 Br  0  0  0  0  0  0  0  0  0  0  0  0
  1  2  1  0      
  2  3  2  0      
  3  4  1  0      
  4  5  2  0      
  5  6  1  0      
  1  6  2  0      
  1  7  1  0      
  8  9  1  0      
  9 10  2  0      
 10 11  1  0      
 11 12  2  0      
 12 13  1  0      
  8 13  2  0      
 14 15  1  0      
 12 14  1  0      
 16 17  1  0      
 11 16  1  0      
 18 19  1  0      
 10 18  1  0      
  7  8  1  0      
 21 22  1  0      
 22 23  2  0      
 23 24  1  0      
 24 25  2  0      
 25 26  1  0      
 21 26  2  0      
 20 21  1  0      
 27 28  2  0      
 27 29  1  0      
 24 27  1  0      
 22 30  1  0      
  3 20  1  0      
  4 31  1  0      
M  CHG  2  27   1  29  -1
M  END

>  <RackCode>
HYCPK72336

>  <Cat. No.>
HY-143466

>  <Product Name>
ULK1-IN-2

>  <ROW>
J

>  <COLUMN>
6

>  <CAS No.>
2497409-01-3

>  <MWt>
495.26

>  <Target>
AMPK; Apoptosis; Autophagy; FAK; ULK

>  <Saltdate>


>  <Smiles>
COC1=C(OC)C(OC)=CC(NC2=NC=C(Br)C(OC3=CC=C([N+]([O-])=O)C=C3F)=N2)=C1

>  <Solvent>
DMSO Solution

>  <Batch No.>
246494

>  <Quantity>
10mM  * 50uL

>  <Pathway>
Apoptosis; Autophagy; Epigenetics; PI3K/Akt/mTOR; Protein Tyrosine Kinase/RTK

>  <Synonyms>


>  <Formula>
C19H16BrFN4O6

>  <Research_Area>
Cancer

>  <Clinical_Information>
No Development Reported

>  <SUPPLIER>
MedChemExpress

$$$$
Untitled Document
  ChemDraw10151816372D

 45 50  0  0  0  0  0  0  0  0999 V2000
   -0.7145    1.4437    0.0000 C   0  0  0  0  0  0  0  0  0  0  0  0
    0.0000    1.0313    0.0000 C   0  0  0  0  0  0  0  0  0  0  0  0
    0.7145    1.4437    0.0000 C   0  0  0  0  0  0  0  0  0  0  0  0
    1.4289    1.0313    0.0000 C   0  0  0  0  0  0  0  0  0  0  0  0
    1.4289    0.2062    0.0000 C   0  0  0  0  0  0  0  0  0  0  0  0
    0.7145   -0.2062    0.0000 C   0  0  0  0  0  0  0  0  0  0  0  0
    0.0000    0.2062    0.0000 C   0  0  0  0  0  0  0  0  0  0  0  0
   -1.4289    1.0313    0.0000 O   0  0  0  0  0  0  0  0  0  0  0  0
   -0.7145    2.2688    0.0000 N   0  0  0  0  0  0  0  0  0  0  0  0
    0.0000   -1.4438    0.0000 C   0  0  0  0  0  0  0  0  0  0  0  0
    0.7145   -1.0313    0.0000 C   0  0  0  0  0  0  0  0  0  0  0  0
    1.4289   -1.4438    0.0000 C   0  0  0  0  0  0  0  0  0  0  0  0
    1.4289   -2.2688    0.0000 C   0  0  0  0  0  0  0  0  0  0  0  0
    0.7145   -2.6813    0.0000 C   0  0  0  0  0  0  0  0  0  0  0  0
    0.0000   -2.2688    0.0000 N   0  0  0  0  0  0  0  0  0  0  0  0
    0.7145   -3.5063    0.0000 N   0  0  0  0  0  0  0  0  0  0  0  0
    1.4289   -3.9188    0.0000 C   0  0  0  0  0  0  0  0  0  0  0  0
    1.4289   -4.7438    0.0000 C   0  0  0  0  0  0  0  0  0  0  0  0
    0.7145   -5.1563    0.0000 N   0  0  0  0  0  0  0  0  0  0  0  0
    0.0000   -4.7438    0.0000 C   0  0  0  0  0  0  0  0  0  0  0  0
    0.0000   -3.9188    0.0000 C   0  0  0  0  0  0  0  0  0  0  0  0
    0.7145   -5.9813    0.0000 C   0  0  0  0  0  0  0  0  0  0  0  0
    0.7145    2.2688    0.0000 C   0  0  0  0  0  0  0  0  0  0  0  0
   -1.4289    2.6813    0.0000 C   0  0  0  0  0  0  0  0  0  0  0  0
   -1.4289    5.1563    0.0000 C   0  0  0  0  0  0  0  0  0  0  0  0
   -0.7145    4.7438    0.0000 N   0  0  0  0  0  0  0  0  0  0  0  0
   -0.7145    3.9188    0.0000 C   0  0  0  0  0  0  0  0  0  0  0  0
   -1.4289    3.5063    0.0000 C   0  0  0  0  0  0  0  0  0  0  0  0
   -2.1434    3.9188    0.0000 C   0  0  0  0  0  0  0  0  0  0  0  0
   -2.8579    3.5063    0.0000 C   0  0  0  0  0  0  0  0  0  0  0  0
   -3.5724    3.9188    0.0000 C   0  0  0  0  0  0  0  0  0  0  0  0
   -3.5724    4.7438    0.0000 C   0  0  0  0  0  0  0  0  0  0  0  0
   -2.8579    5.1563    0.0000 C   0  0  0  0  0  0  0  0  0  0  0  0
   -2.1434    4.7438    0.0000 C   0  0  0  0  0  0  0  0  0  0  0  0
    0.0000    3.5063    0.0000 O   0  0  0  0  0  0  0  0  0  0  0  0
   -1.4289    5.9813    0.0000 C   0  0  0  0  0  0  0  0  0  0  0  0
    2.1434    1.4437    0.0000 N   0  0  0  0  0  0  0  0  0  0  0  0
    2.8579    3.5063    0.0000 C   0  0  0  0  0  0  0  0  0  0  0  0
    2.8579    2.6813    0.0000 C   0  0  0  0  0  0  0  0  0  0  0  0
    2.1434    2.2688    0.0000 C   0  0  0  0  0  0  0  0  0  0  0  0
    1.4289    2.6813    0.0000 C   0  0  0  0  0  0  0  0  0  0  0  0
    1.4289    3.5063    0.0000 C   0  0  0  0  0  0  0  0  0  0  0  0
    2.1434    3.9188    0.0000 O   0  0  0  0  0  0  0  0  0  0  0  0
    2.8579    1.0313    0.0000 C   0  0  0  0  0  0  0  0  0  0  0  0
    3.5724    1.4437    0.0000 C   0  0  0  0  0  0  0  0  0  0  0  0
  1  2  1  0      
  2  3  1  0      
  3  4  2  0      
  4  5  1  0      
  5  6  2  0      
  6  7  1  0      
  2  7  2  0      
  1  8  2  0      
  1  9  1  0      
 10 11  1  0      
 11 12  2  0      
 12 13  1  0      
 13 14  2  0      
 14 15  1  0      
 10 15  2  0      
 16 17  1  0      
 17 18  1  0      
 18 19  1  0      
 19 20  1  0      
 20 21  1  0      
 16 21  1  0      
 19 22  1  0      
 14 16  1  0      
  6 11  1  0      
  3 23  1  0      
 25 26  1  0      
 26 27  1  0      
 27 28  1  0      
 28 29  2  0      
 29 30  1  0      
 30 31  1  0      
 31 32  1  0      
 32 33  1  0      
 33 34  1  0      
 25 34  2  0      
 29 34  1  0      
 27 35  2  0      
 25 36  1  0      
 24 28  1  0      
  9 24  1  0      
 38 39  1  0      
 39 40  1  0      
 40 41  1  0      
 41 42  1  0      
 42 43  1  0      
 38 43  1  0      
 37 40  1  0      
 44 45  1  0      
 37 44  1  0      
  4 37  1  0      
M  END

>  <RackCode>
HYCPK72336

>  <Cat. No.>
HY-116804

>  <Product Name>
ZLD1039

>  <ROW>
K

>  <COLUMN>
6

>  <CAS No.>
1826865-46-6

>  <MWt>
612.80

>  <Target>
Histone Methyltransferase

>  <Saltdate>


>  <Smiles>
O=C(NCC1=C2CCCCC2=C(C)NC1=O)C3=CC(C4=CC=C(N5CCN(C)CC5)N=C4)=CC(N(CC)C6CCOCC6)=C3C

>  <Solvent>
DMSO Solution

>  <Batch No.>
252209

>  <Quantity>
10mM  * 50uL

>  <Pathway>
Epigenetics

>  <Synonyms>


>  <Formula>
C36H48N6O3

>  <Research_Area>
Cancer

>  <Clinical_Information>
No Development Reported

>  <SUPPLIER>
MedChemExpress

$$$$
Untitled Document
  ChemDraw03141709092D

 23 25  0  0  0  0  0  0  0  0999 V2000
   -2.8554    0.6195    0.0000 N   0  0  0  0  0  0  0  0  0  0  0  0
   -2.8554   -0.2055    0.0000 N   0  0  0  0  0  0  0  0  0  0  0  0
   -2.1409   -0.6180    0.0000 C   0  0  0  0  0  0  0  0  0  0  0  0
   -1.4265   -0.2055    0.0000 C   0  0  0  0  0  0  0  0  0  0  0  0
   -1.4265    0.6195    0.0000 C   0  0  0  0  0  0  0  0  0  0  0  0
   -2.1409    1.0320    0.0000 C   0  0  0  0  0  0  0  0  0  0  0  0
   -0.7145    1.0305    0.0000 Br  0  0  0  0  0  0  0  0  0  0  0  0
   -0.7145   -0.6166    0.0000 N   0  0  0  0  0  0  0  0  0  0  0  0
   -0.0025   -0.2055    0.0000 C   0  0  0  0  0  0  0  0  0  0  0  0
    0.7120   -0.6180    0.0000 C   0  0  0  0  0  0  0  0  0  0  0  0
    1.4265   -0.2055    0.0000 C   0  0  0  0  0  0  0  0  0  0  0  0
    1.4265    0.6195    0.0000 C   0  0  0  0  0  0  0  0  0  0  0  0
    0.7120    1.0320    0.0000 N   0  0  0  0  0  0  0  0  0  0  0  0
   -0.0025    0.6195    0.0000 C   0  0  0  0  0  0  0  0  0  0  0  0
    0.7120    1.8541    0.0000 C   0  0  0  0  0  0  0  0  0  0  0  0
    2.1385   -0.6166    0.0000 C   0  0  0  0  0  0  0  0  0  0  0  0
    2.1385   -1.4416    0.0000 C   0  0  0  0  0  0  0  0  0  0  0  0
    2.8529   -1.8541    0.0000 C   0  0  0  0  0  0  0  0  0  0  0  0
    3.5674   -1.4416    0.0000 C   0  0  0  0  0  0  0  0  0  0  0  0
    3.5674   -0.6166    0.0000 C   0  0  0  0  0  0  0  0  0  0  0  0
    2.8529   -0.2041    0.0000 C   0  0  0  0  0  0  0  0  0  0  0  0
   -2.1409    1.8541    0.0000 O   0  0  0  0  0  0  0  0  0  0  0  0
   -3.5674    1.0305    0.0000 C   0  0  0  0  0  0  0  0  0  0  0  0
  1  2  1  0      
  2  3  2  0      
  3  4  1  0      
  4  5  2  0      
  5  6  1  0      
  6  1  1  0      
  5  7  1  0      
  4  8  1  0      
  9  8  1  1      
  9 10  1  0      
 10 11  1  0      
 11 12  1  0      
 12 13  1  0      
 13 14  1  0      
 14  9  1  0      
 13 15  1  0      
 11 16  1  1      
 16 17  2  0      
 17 18  1  0      
 18 19  2  0      
 19 20  1  0      
 20 21  2  0      
 21 16  1  0      
  6 22  2  0      
  1 23  1  0      
M  END

>  <RackCode>
HYCPK72336

>  <Cat. No.>
HY-101027

>  <Product Name>
GSK 4027

>  <ROW>
L

>  <COLUMN>
6

>  <CAS No.>
2079896-25-4

>  <MWt>
377.28

>  <Target>
Epigenetic Reader Domain; Histone Acetyltransferase

>  <Saltdate>
Free Base

>  <Smiles>
BrC1=C(N[C@@H]2C[C@H](C3=CC=CC=C3)CN(C)C2)C=NN(C)C1=O

>  <Solvent>
DMSO Solution

>  <Batch No.>
33942

>  <Quantity>
10mM  * 50uL

>  <Pathway>
Epigenetics

>  <Synonyms>


>  <Formula>
C17H21BrN4O

>  <Research_Area>
Cancer; Inflammation/Immunology

>  <Clinical_Information>
No Development Reported

>  <SUPPLIER>
MedChemExpress

$$$$
Untitled Document
  ChemDraw06072111232D

 24 26  0  0  0  0  0  0  0  0999 V2000
   -0.0000   -1.6500    0.0000 C   0  0  0  0  0  0  0  0  0  0  0  0
    0.7145   -1.2375    0.0000 C   0  0  0  0  0  0  0  0  0  0  0  0
    1.4289   -1.6500    0.0000 C   0  0  0  0  0  0  0  0  0  0  0  0
    2.1434   -1.2375    0.0000 C   0  0  0  0  0  0  0  0  0  0  0  0
    2.1434   -0.4125    0.0000 C   0  0  0  0  0  0  0  0  0  0  0  0
    1.4289    0.0000    0.0000 C   0  0  0  0  0  0  0  0  0  0  0  0
    0.7145   -0.4125    0.0000 C   0  0  0  0  0  0  0  0  0  0  0  0
   -0.0000   -2.4750    0.0000 O   0  0  0  0  0  0  0  0  0  0  0  0
   -0.7145   -1.2375    0.0000 O   0  0  0  0  0  0  0  0  0  0  0  0
    2.8579    0.0000    0.0000 Cl  0  0  0  0  0  0  0  0  0  0  0  0
    1.4289   -2.4750    0.0000 Cl  0  0  0  0  0  0  0  0  0  0  0  0
   -2.1434   -0.4125    0.0000 N   0  0  0  0  0  0  0  0  0  0  0  0
   -2.8579    0.0000    0.0000 C   0  0  0  0  0  0  0  0  0  0  0  0
   -2.8579    0.8250    0.0000 C   0  0  0  0  0  0  0  0  0  0  0  0
   -2.1434    1.2375    0.0000 C   0  0  0  0  0  0  0  0  0  0  0  0
   -1.4289    0.8250    0.0000 C   0  0  0  0  0  0  0  0  0  0  0  0
   -0.7145    1.2375    0.0000 C   0  0  0  0  0  0  0  0  0  0  0  0
   -0.0000    0.8250    0.0000 C   0  0  0  0  0  0  0  0  0  0  0  0
   -0.0000    0.0000    0.0000 C   0  0  0  0  0  0  0  0  0  0  0  0
   -0.7145   -0.4125    0.0000 C   0  0  0  0  0  0  0  0  0  0  0  0
   -1.4289    0.0000    0.0000 C   0  0  0  0  0  0  0  0  0  0  0  0
   -0.7145    2.0625    0.0000 N   0  3  0  0  0  0  0  0  0  0  0  0
   -1.4289    2.4750    0.0000 O   0  0  0  0  0  0  0  0  0  0  0  0
   -0.0000    2.4750    0.0000 O   0  5  0  0  0  0  0  0  0  0  0  0
  1  2  1  0      
  2  3  1  0      
  3  4  2  0      
  4  5  1  0      
  5  6  2  0      
  6  7  1  0      
  2  7  2  0      
  1  8  2  0      
  1  9  1  0      
  5 10  1  0      
  3 11  1  0      
 12 13  2  0      
 13 14  1  0      
 14 15  2  0      
 15 16  1  0      
 16 17  2  0      
 17 18  1  0      
 18 19  2  0      
 19 20  1  0      
 20 21  2  0      
 12 21  1  0      
 16 21  1  0      
 22 23  2  0      
 22 24  1  0      
 17 22  1  0      
  9 20  1  0      
M  CHG  2  22   1  24  -1
M  END

>  <RackCode>
HYCPK72336

>  <Cat. No.>
HY-132198

>  <Product Name>
JMJD7-IN-1

>  <ROW>
M

>  <COLUMN>
6

>  <CAS No.>
311316-96-8

>  <MWt>
363.15

>  <Target>
Histone Demethylase

>  <Saltdate>


>  <Smiles>
O=C(OC1=C2N=CC=CC2=C([N+]([O-])=O)C=C1)C3=CC=C(Cl)C=C3Cl

>  <Solvent>
DMSO Solution

>  <Batch No.>
105703

>  <Quantity>
10mM  * 50uL

>  <Pathway>
Epigenetics

>  <Synonyms>


>  <Formula>
C16H8Cl2N2O4

>  <Research_Area>
Cancer

>  <Clinical_Information>
No Development Reported

>  <SUPPLIER>
MedChemExpress

$$$$
Untitled Document
  ChemDraw06281714322D

 26 28  0  0  0  0  0  0  0  0999 V2000
   -2.1379    2.6813    0.0000 C   0  0  0  0  0  0  0  0  0  0  0  0
   -1.4234    3.0938    0.0000 N   0  0  0  0  0  0  0  0  0  0  0  0
   -0.7090    2.6813    0.0000 C   0  0  0  0  0  0  0  0  0  0  0  0
   -0.7090    1.8563    0.0000 C   0  0  0  0  0  0  0  0  0  0  0  0
   -1.4234    1.4438    0.0000 C   0  0  0  0  0  0  0  0  0  0  0  0
   -2.1379    1.8563    0.0000 N   0  0  0  0  0  0  0  0  0  0  0  0
    0.0757    2.9362    0.0000 N   0  0  0  0  0  0  0  0  0  0  0  0
    0.0757    1.6013    0.0000 C   0  0  0  0  0  0  0  0  0  0  0  0
    0.5606    2.2688    0.0000 C   0  0  0  0  0  0  0  0  0  0  0  0
    0.3306    0.8167    0.0000 C   0  0  0  0  0  0  0  0  0  0  0  0
   -0.2528    0.2333    0.0000 O   0  0  0  0  0  0  0  0  0  0  0  0
    1.1275    0.6032    0.0000 O   0  0  0  0  0  0  0  0  0  0  0  0
   -1.4234    0.6188    0.0000 C   0  0  0  0  0  0  0  0  0  0  0  0
   -0.7090    0.2062    0.0000 C   0  0  0  0  0  0  0  0  0  0  0  0
   -0.7090   -0.6188    0.0000 C   0  0  0  0  0  0  0  0  0  0  0  0
   -1.4234   -1.0313    0.0000 C   0  0  0  0  0  0  0  0  0  0  0  0
   -2.1379   -0.6188    0.0000 C   0  0  0  0  0  0  0  0  0  0  0  0
   -2.1379    0.2062    0.0000 C   0  0  0  0  0  0  0  0  0  0  0  0
    0.0055   -1.8563    0.0000 C   0  0  0  0  0  0  0  0  0  0  0  0
    0.7200   -2.2688    0.0000 C   0  0  0  0  0  0  0  0  0  0  0  0
    1.4345   -1.8563    0.0000 C   0  0  0  0  0  0  0  0  0  0  0  0
    0.7200   -3.0938    0.0000 C   0  0  0  0  0  0  0  0  0  0  0  0
   -0.7090   -2.2688    0.0000 O   0  0  0  0  0  0  0  0  0  0  0  0
    0.0055   -1.0313    0.0000 N   0  0  0  0  0  0  0  0  0  0  0  0
    1.3410   -0.1937    0.0000 C   0  0  0  0  0  0  0  0  0  0  0  0
    2.1379   -0.4073    0.0000 C   0  0  0  0  0  0  0  0  0  0  0  0
  1  2  1  0      
  2  3  2  0      
  3  4  1  0      
  4  5  2  0      
  5  6  1  0      
  1  6  2  0      
  8  9  2  0      
  7  9  1  0      
  3  7  1  0      
  4  8  1  0      
 10 11  2  0      
 10 12  1  0      
  8 10  1  0      
 13 14  1  0      
 14 15  2  0      
 15 16  1  0      
 16 17  2  0      
 17 18  1  0      
 13 18  2  0      
 19 20  1  0      
 20 21  1  0      
 20 22  2  0      
 19 23  2  0      
 19 24  1  0      
 15 24  1  0      
  5 13  1  0      
 25 26  1  0      
 12 25  1  0      
M  END

>  <RackCode>
HYCPK72336

>  <Cat. No.>
HY-101976

>  <Product Name>
JAK3-IN-6

>  <ROW>
N

>  <COLUMN>
6

>  <CAS No.>
1443235-95-7

>  <MWt>
350.37

>  <Target>
JAK

>  <Saltdate>
Free Base

>  <Smiles>
O=C(C1=CNC2=NC=NC(C3=CC=CC(NC(C(C)=C)=O)=C3)=C21)OCC

>  <Solvent>
DMSO Solution

>  <Batch No.>
46114

>  <Quantity>
10mM  * 50uL

>  <Pathway>
Epigenetics; JAK/STAT Signaling; Protein Tyrosine Kinase/RTK; Stem Cell/Wnt

>  <Synonyms>


>  <Formula>
C19H18N4O3

>  <Research_Area>
Inflammation/Immunology

>  <Clinical_Information>
No Development Reported

>  <SUPPLIER>
MedChemExpress

$$$$
Untitled Document
  ChemDraw07172010342D

 36 38  0  0  0  0  0  0  0  0999 V2000
   -5.7635    1.7607    0.0000 C   0  0  0  0  0  0  0  0  0  0  0  0
   -4.9430    1.8469    0.0000 C   0  0  0  0  0  0  0  0  0  0  0  0
   -4.4580    1.1795    0.0000 C   0  0  0  0  0  0  0  0  0  0  0  0
   -4.7936    0.4258    0.0000 C   0  0  0  0  0  0  0  0  0  0  0  0
   -5.6141    0.3396    0.0000 C   0  0  0  0  0  0  0  0  0  0  0  0
   -6.0990    1.0070    0.0000 N   0  0  0  0  0  0  0  0  0  0  0  0
   -3.6376    1.2657    0.0000 C   0  0  0  0  0  0  0  0  0  0  0  0
   -3.1526    0.5983    0.0000 N   0  0  0  0  0  0  0  0  0  0  0  0
   -1.0265    0.4070    0.0000 N   0  0  0  0  0  0  0  0  0  0  0  0
   -1.7801    0.0714    0.0000 C   0  0  0  0  0  0  0  0  0  0  0  0
   -2.3322    0.6845    0.0000 C   0  0  0  0  0  0  0  0  0  0  0  0
   -1.9197    1.3990    0.0000 C   0  0  0  0  0  0  0  0  0  0  0  0
   -1.1127    1.2275    0.0000 C   0  0  0  0  0  0  0  0  0  0  0  0
    1.1170   -0.0055    0.0000 C   0  0  0  0  0  0  0  0  0  0  0  0
    0.4025    0.4070    0.0000 C   0  0  0  0  0  0  0  0  0  0  0  0
   -0.3120   -0.0055    0.0000 C   0  0  0  0  0  0  0  0  0  0  0  0
   -0.3120   -0.8305    0.0000 C   0  0  0  0  0  0  0  0  0  0  0  0
    0.4025   -1.2430    0.0000 C   0  0  0  0  0  0  0  0  0  0  0  0
    1.1170   -0.8305    0.0000 N   0  0  0  0  0  0  0  0  0  0  0  0
    1.9016    0.2494    0.0000 N   0  0  0  0  0  0  0  0  0  0  0  0
    2.3865   -0.4180    0.0000 C   0  0  0  0  0  0  0  0  0  0  0  0
    1.9016   -1.0854    0.0000 C   0  0  0  0  0  0  0  0  0  0  0  0
    3.2115   -0.4180    0.0000 C   0  0  0  0  0  0  0  0  0  0  0  0
    3.6240    0.2965    0.0000 C   0  0  0  0  0  0  0  0  0  0  0  0
    4.4490    0.2965    0.0000 C   0  0  0  0  0  0  0  0  0  0  0  0
    4.8615   -0.4180    0.0000 C   0  0  0  0  0  0  0  0  0  0  0  0
    4.4490   -1.1325    0.0000 C   0  0  0  0  0  0  0  0  0  0  0  0
    3.6240   -1.1325    0.0000 C   0  0  0  0  0  0  0  0  0  0  0  0
    5.6865   -0.4180    0.0000 O   0  0  0  0  0  0  0  0  0  0  0  0
    6.0990    0.2965    0.0000 C   0  0  0  0  0  0  0  0  0  0  0  0
    3.2115    1.0109    0.0000 O   0  0  0  0  0  0  0  0  0  0  0  0
    2.3865    1.0109    0.0000 C   0  0  0  0  0  0  0  0  0  0  0  0
    4.8615   -1.8469    0.0000 Cl  0  0  0  0  0  0  0  0  0  0  0  0
   -2.1854   -1.4266    0.0000 H   0  0  0  0  0  0  0  0  0  0  0  0
   -1.3604   -1.4266    0.0000 Cl  0  0  0  0  0  0  0  0  0  0  0  0
   -3.2268   -1.2686    0.0000 C   0  0  0  0  0  0  0  0  0  0  0  0
  1  2  1  0      
  2  3  2  0      
  3  4  1  0      
  4  5  2  0      
  5  6  1  0      
  1  6  2  0      
  7  8  1  0      
  3  7  1  0      
  9 10  1  0      
 10 11  1  0      
 11 12  1  0      
 12 13  1  0      
  9 13  1  0      
 14 15  1  0      
 15 16  2  0      
 16 17  1  0      
 17 18  2  0      
 18 19  1  0      
 14 19  1  0      
 20 21  1  0      
 21 22  2  0      
 22 19  1  0      
 20 14  2  0      
 23 24  1  0      
 24 25  2  0      
 25 26  1  0      
 26 27  2  0      
 27 28  1  0      
 23 28  2  0      
 29 30  1  0      
 26 29  1  0      
 31 32  1  0      
 24 31  1  0      
 27 33  1  0      
 21 23  1  0      
  9 16  1  0      
 11  8  1  1      
 34 35  1  0      
A   36
\s8/5
M  END

>  <RackCode>
HYCPK72336

>  <Cat. No.>
HY-122181B

>  <Product Name>
OTS186935 (hydrochloride)

>  <ROW>
O

>  <COLUMN>
6

>  <CAS No.>


>  <MWt>
522.31

>  <Target>
Histone Methyltransferase

>  <Saltdate>
Hydrochloride

>  <Smiles>
COC1=C(Cl)C=C(C2=CN3C=CC(N4C[C@@H](NCC5=CC=NC=C5)CC4)=CC3=N2)C(OC)=C1.[H]Cl.[8/5]

>  <Solvent>
DMSO Solution

>  <Batch No.>
65479

>  <Quantity>
10mM  * 50uL

>  <Pathway>
Epigenetics

>  <Synonyms>


>  <Formula>
C25H26ClN5O2.8/5HCl

>  <Research_Area>
Cancer

>  <Clinical_Information>
No Development Reported

>  <SUPPLIER>
MedChemExpress

$$$$
Untitled Document
  ChemDraw11052010282D

 23 24  0  0  0  0  0  0  0  0999 V2000
   -3.9295   -0.8250    0.0000 C   0  0  0  0  0  0  0  0  0  0  0  0
   -3.2150   -0.4125    0.0000 C   0  0  0  0  0  0  0  0  0  0  0  0
   -2.5005   -0.8250    0.0000 C   0  0  0  0  0  0  0  0  0  0  0  0
   -2.5005   -1.6500    0.0000 C   0  0  0  0  0  0  0  0  0  0  0  0
   -3.2150   -2.0624    0.0000 C   0  0  0  0  0  0  0  0  0  0  0  0
   -3.9295   -1.6500    0.0000 N   0  0  0  0  0  0  0  0  0  0  0  0
   -1.7861   -0.4125    0.0000 C   0  0  0  0  0  0  0  0  0  0  0  0
   -1.7861    0.4125    0.0000 O   0  0  0  0  0  0  0  0  0  0  0  0
   -1.0717   -0.8250    0.0000 N   0  0  0  0  0  0  0  0  0  0  0  0
   -0.3572   -0.4125    0.0000 N   0  0  0  0  0  0  0  0  0  0  0  0
    0.3572   -0.8250    0.0000 C   0  0  0  0  0  0  0  0  0  0  0  0
    1.0717   -0.4125    0.0000 C   0  0  0  0  0  0  0  0  0  0  0  0
    1.0717    0.4125    0.0000 C   0  0  0  0  0  0  0  0  0  0  0  0
    1.7861    0.8250    0.0000 C   0  0  0  0  0  0  0  0  0  0  0  0
    2.5005    0.4125    0.0000 C   0  0  0  0  0  0  0  0  0  0  0  0
    2.5005   -0.4125    0.0000 C   0  0  0  0  0  0  0  0  0  0  0  0
    1.7861   -0.8250    0.0000 C   0  0  0  0  0  0  0  0  0  0  0  0
    0.3572    0.8250    0.0000 O   0  0  0  0  0  0  0  0  0  0  0  0
    3.2150    0.8250    0.0000 N   0  0  0  0  0  0  0  0  0  0  0  0
    3.2150    1.6500    0.0000 C   0  0  0  0  0  0  0  0  0  0  0  0
    2.5005    2.0624    0.0000 C   0  0  0  0  0  0  0  0  0  0  0  0
    3.9295    0.4125    0.0000 C   0  0  0  0  0  0  0  0  0  0  0  0
    3.9295   -0.4125    0.0000 C   0  0  0  0  0  0  0  0  0  0  0  0
  1  2  1  0      
  2  3  2  0      
  3  4  1  0      
  4  5  2  0      
  5  6  1  0      
  1  6  2  0      
  7  8  2  0      
  9 10  1  0      
 12 13  1  0      
 13 14  2  0      
 14 15  1  0      
 15 16  2  0      
 16 17  1  0      
 12 17  2  0      
 13 18  1  0      
 20 21  1  0      
 19 20  1  0      
 22 23  1  0      
 19 22  1  0      
 15 19  1  0      
 11 12  1  0      
 10 11  2  0      
  7  9  1  0      
  3  7  1  0      
M  END

>  <RackCode>
HYCPK72336

>  <Cat. No.>
HY-103238

>  <Product Name>
RSVA405

>  <ROW>
P

>  <COLUMN>
6

>  <CAS No.>
140405-36-3

>  <MWt>
312.37

>  <Target>
AMPK; Autophagy; STAT

>  <Saltdate>


>  <Smiles>
O=C(C1=CC=NC=C1)N/N=C/C2=CC=C(N(CC)CC)C=C2O

>  <Solvent>
DMSO Solution

>  <Batch No.>
153532

>  <Quantity>
10mM  * 50uL

>  <Pathway>
Autophagy; Epigenetics; JAK/STAT Signaling; PI3K/Akt/mTOR; Stem Cell/Wnt

>  <Synonyms>


>  <Formula>
C17H20N4O2

>  <Research_Area>
Metabolic Disease; Inflammation/Immunology; Neurological Disease

>  <Clinical_Information>
No Development Reported

>  <SUPPLIER>
MedChemExpress

$$$$
Untitled Document
  ChemDraw02232214532D

 58 63  0  0  0  0  0  0  0  0999 V2000
   -9.1418    2.6630    0.0000 C   0  0  0  0  0  0  0  0  0  0  0  0
   -8.8868    3.4476    0.0000 C   0  0  0  0  0  0  0  0  0  0  0  0
   -8.1022    3.7026    0.0000 C   0  0  0  0  0  0  0  0  0  0  0  0
   -8.1022    4.5276    0.0000 C   0  0  0  0  0  0  0  0  0  0  0  0
   -7.4572    5.0419    0.0000 N   0  0  0  0  0  0  0  0  0  0  0  0
   -6.6529    4.8584    0.0000 C   0  0  0  0  0  0  0  0  0  0  0  0
   -6.2949    4.1151    0.0000 C   0  0  0  0  0  0  0  0  0  0  0  0
   -5.4699    4.1151    0.0000 C   0  0  0  0  0  0  0  0  0  0  0  0
   -5.0574    3.4006    0.0000 C   0  0  0  0  0  0  0  0  0  0  0  0
   -4.2324    3.4006    0.0000 N   0  0  0  0  0  0  0  0  0  0  0  0
   -3.8199    2.6861    0.0000 C   0  0  0  0  0  0  0  0  0  0  0  0
   -2.9949    2.6861    0.0000 C   0  0  0  0  0  0  0  0  0  0  0  0
   -2.5824    1.9716    0.0000 C   0  0  0  0  0  0  0  0  0  0  0  0
   -1.7574    1.9716    0.0000 O   0  0  0  0  0  0  0  0  0  0  0  0
   -1.3449    1.2572    0.0000 C   0  0  0  0  0  0  0  0  0  0  0  0
   -0.5199    1.2572    0.0000 C   0  0  0  0  0  0  0  0  0  0  0  0
   -0.1074    0.5427    0.0000 O   0  0  0  0  0  0  0  0  0  0  0  0
    0.7176    0.5427    0.0000 C   0  0  0  0  0  0  0  0  0  0  0  0
    1.1301   -0.1718    0.0000 C   0  0  0  0  0  0  0  0  0  0  0  0
    1.9551   -0.1718    0.0000 O   0  0  0  0  0  0  0  0  0  0  0  0
    2.3676   -0.8862    0.0000 C   0  0  0  0  0  0  0  0  0  0  0  0
    3.1926   -0.8862    0.0000 C   0  0  0  0  0  0  0  0  0  0  0  0
    3.6051   -1.6007    0.0000 C   0  0  0  0  0  0  0  0  0  0  0  0
    4.4301   -1.6007    0.0000 N   0  0  0  0  0  0  0  0  0  0  0  0
    4.8426   -2.3152    0.0000 C   0  0  0  0  0  0  0  0  0  0  0  0
    5.6676   -2.3152    0.0000 C   0  0  0  0  0  0  0  0  0  0  0  0
    6.0801   -3.0296    0.0000 C   0  0  0  0  0  0  0  0  0  0  0  0
    6.9051   -3.0296    0.0000 C   0  0  0  0  0  0  0  0  0  0  0  0
    7.3176   -3.7441    0.0000 C   0  0  0  0  0  0  0  0  0  0  0  0
    8.1426   -3.7441    0.0000 C   0  0  0  0  0  0  0  0  0  0  0  0
    8.6275   -4.4116    0.0000 C   0  0  0  0  0  0  0  0  0  0  0  0
    9.4121   -4.1566    0.0000 C   0  0  0  0  0  0  0  0  0  0  0  0
    9.4121   -3.3316    0.0000 C   0  0  0  0  0  0  0  0  0  0  0  0
    8.6275   -3.0767    0.0000 S   0  0  0  0  0  0  0  0  0  0  0  0
    9.8970   -4.8241    0.0000 N   0  0  0  0  0  0  0  0  0  0  0  0
    9.4121   -5.4915    0.0000 C   0  0  0  0  0  0  0  0  0  0  0  0
    9.6671   -6.2761    0.0000 O   0  0  0  0  0  0  0  0  0  0  0  0
    8.6275   -5.2366    0.0000 N   0  0  0  0  0  0  0  0  0  0  0  0
   10.1967   -3.9017    0.0000 H   0  0  0  0  0  0  0  0  0  0  0  0
    7.8429   -4.6665    0.0000 H   0  0  0  0  0  0  0  0  0  0  0  0
    4.4301   -3.0296    0.0000 O   0  0  0  0  0  0  0  0  0  0  0  0
   -5.4699    2.6861    0.0000 O   0  0  0  0  0  0  0  0  0  0  0  0
   -6.6529    3.3718    0.0000 N   0  0  0  0  0  0  0  0  0  0  0  0
   -7.4572    3.1882    0.0000 C   0  0  0  0  0  0  0  0  0  0  0  0
   -7.6408    2.3839    0.0000 C   0  0  0  0  0  0  0  0  0  0  0  0
   -7.0360    1.8227    0.0000 C   0  0  0  0  0  0  0  0  0  0  0  0
   -7.2196    1.0184    0.0000 C   0  0  0  0  0  0  0  0  0  0  0  0
   -8.0079    0.7752    0.0000 C   0  0  0  0  0  0  0  0  0  0  0  0
   -8.1915   -0.0291    0.0000 Cl  0  0  0  0  0  0  0  0  0  0  0  0
   -8.6127    1.3364    0.0000 C   0  0  0  0  0  0  0  0  0  0  0  0
   -8.4291    2.1407    0.0000 C   0  0  0  0  0  0  0  0  0  0  0  0
   -6.2297    5.5666    0.0000 N   0  0  0  0  0  0  0  0  0  0  0  0
   -6.7725    6.1879    0.0000 N   0  0  0  0  0  0  0  0  0  0  0  0
   -7.5311    5.8636    0.0000 C   0  0  0  0  0  0  0  0  0  0  0  0
   -8.2456    6.2761    0.0000 C   0  0  0  0  0  0  0  0  0  0  0  0
   -8.8868    4.7825    0.0000 S   0  0  0  0  0  0  0  0  0  0  0  0
   -9.3717    4.1151    0.0000 C   0  0  0  0  0  0  0  0  0  0  0  0
  -10.1967    4.1151    0.0000 C   0  0  0  0  0  0  0  0  0  0  0  0
  1  2  1  0      
  2  3  1  0      
  3  4  2  0      
  4  5  1  0      
  5  6  1  0      
  6  7  1  0      
  7  8  1  6      
  8  9  1  0      
  9 10  1  0      
 10 11  1  0      
 11 12  1  0      
 12 13  1  0      
 13 14  1  0      
 14 15  1  0      
 15 16  1  0      
 16 17  1  0      
 17 18  1  0      
 18 19  1  0      
 19 20  1  0      
 20 21  1  0      
 21 22  1  0      
 22 23  1  0      
 23 24  1  0      
 24 25  1  0      
 25 26  1  0      
 26 27  1  0      
 27 28  1  0      
 28 29  1  0      
 30 29  1  6      
 30 31  1  0      
 31 32  1  0      
 32 33  1  0      
 33 34  1  0      
 30 34  1  0      
 32 35  1  0      
 35 36  1  0      
 36 37  2  0      
 36 38  1  0      
 31 38  1  0      
 32 39  1  1      
 31 40  1  1      
 25 41  2  0      
  9 42  2  0      
  7 43  1  0      
 43 44  2  0      
  3 44  1  0      
 44 45  1  0      
 45 46  2  0      
 46 47  1  0      
 47 48  2  0      
 48 49  1  0      
 48 50  1  0      
 50 51  2  0      
 45 51  1  0      
  6 52  2  0      
 52 53  1  0      
 53 54  2  0      
  5 54  1  0      
 54 55  1  0      
  4 56  1  0      
 56 57  1  0      
  2 57  2  0      
 57 58  1  0      
M  END

>  <RackCode>
HYCPK72336

>  <Cat. No.>
HY-145667

>  <Product Name>
Biotinylated-JQ1

>  <ROW>
A

>  <COLUMN>
7

>  <CAS No.>
1635437-52-3

>  <MWt>
829.47

>  <Target>
Epigenetic Reader Domain

>  <Saltdate>


>  <Smiles>
CC1=C(C)SC2=C1C(C3=CC=C(C=C3)Cl)=N[C@@H](CC(NCCCOCCOCCOCCCNC(CCCC[C@H]4[C@]5([H])[C@](NC(N5)=O)([H])CS4)=O)=O)C6=NN=C(C)N26

>  <Solvent>
DMSO Solution

>  <Batch No.>
157307

>  <Quantity>
10mM  * 50uL

>  <Pathway>
Epigenetics

>  <Synonyms>
Biotin-JQ1

>  <Formula>
C39H53ClN8O6S2

>  <Research_Area>
Cancer

>  <Clinical_Information>
No Development Reported

>  <SUPPLIER>
MedChemExpress

$$$$
Untitled Document
  ChemDraw12101915032D

 33 36  0  0  0  0  0  0  0  0999 V2000
   -0.6938   -3.8088    0.0000 H   0  0  0  0  0  0  0  0  0  0  0  0
    0.1312   -3.8088    0.0000 Cl  0  0  0  0  0  0  0  0  0  0  0  0
   -0.7045   -2.3425    0.0000 N   0  0  0  0  0  0  0  0  0  0  0  0
   -1.1897   -1.6750    0.0000 C   0  0  0  0  0  0  0  0  0  0  0  0
   -0.7045   -1.0076    0.0000 C   0  0  0  0  0  0  0  0  0  0  0  0
    0.0800   -1.2626    0.0000 C   0  0  0  0  0  0  0  0  0  0  0  0
    0.0800   -2.0874    0.0000 C   0  0  0  0  0  0  0  0  0  0  0  0
   -2.0144   -1.6750    0.0000 O   0  0  0  0  0  0  0  0  0  0  0  0
    0.7474   -2.5724    0.0000 O   0  0  0  0  0  0  0  0  0  0  0  0
    1.5321    0.3022    0.0000 N   0  0  0  0  0  0  0  0  0  0  0  0
    0.7474    0.0474    0.0000 C   0  0  0  0  0  0  0  0  0  0  0  0
    0.7474   -0.7775    0.0000 C   0  0  0  0  0  0  0  0  0  0  0  0
    1.5321   -1.0325    0.0000 C   0  0  0  0  0  0  0  0  0  0  0  0
    1.8677   -1.7862    0.0000 C   0  0  0  0  0  0  0  0  0  0  0  0
    2.6880   -1.8723    0.0000 C   0  0  0  0  0  0  0  0  0  0  0  0
    3.1730   -1.2049    0.0000 C   0  0  0  0  0  0  0  0  0  0  0  0
    2.8374   -0.4514    0.0000 C   0  0  0  0  0  0  0  0  0  0  0  0
    2.0169   -0.3651    0.0000 C   0  0  0  0  0  0  0  0  0  0  0  0
   -0.9596    1.1119    0.0000 N   0  0  0  0  0  0  0  0  0  0  0  0
   -0.4746    0.4446    0.0000 C   0  0  0  0  0  0  0  0  0  0  0  0
   -0.9596   -0.2229    0.0000 C   0  0  0  0  0  0  0  0  0  0  0  0
   -1.7442    0.0319    0.0000 C   0  0  0  0  0  0  0  0  0  0  0  0
   -2.4586   -0.3807    0.0000 C   0  0  0  0  0  0  0  0  0  0  0  0
   -3.1730    0.0319    0.0000 C   0  0  0  0  0  0  0  0  0  0  0  0
   -3.1730    0.8571    0.0000 C   0  0  0  0  0  0  0  0  0  0  0  0
   -2.4586    1.2695    0.0000 C   0  0  0  0  0  0  0  0  0  0  0  0
   -1.7442    0.8571    0.0000 C   0  0  0  0  0  0  0  0  0  0  0  0
   -0.7045    1.8966    0.0000 C   0  0  0  0  0  0  0  0  0  0  0  0
    0.1025    2.0681    0.0000 C   0  0  0  0  0  0  0  0  0  0  0  0
    0.3573    2.8527    0.0000 C   0  0  0  0  0  0  0  0  0  0  0  0
    1.1643    3.0240    0.0000 N   0  0  0  0  0  0  0  0  0  0  0  0
    1.4192    3.8088    0.0000 C   0  0  0  0  0  0  0  0  0  0  0  0
    1.7164    2.4110    0.0000 C   0  0  0  0  0  0  0  0  0  0  0  0
  1  2  1  0      
  3  4  1  0      
  4  5  1  0      
  5  6  2  0      
  6  7  1  0      
  3  7  1  0      
  4  8  2  0      
  7  9  2  0      
 10 11  1  0      
 11 12  2  0      
 12 13  1  0      
 13 14  1  0      
 14 15  2  0      
 15 16  1  0      
 16 17  2  0      
 17 18  1  0      
 10 18  1  0      
 13 18  2  0      
  6 12  1  0      
 19 20  1  0      
 20 21  2  0      
 21 22  1  0      
 22 23  1  0      
 23 24  2  0      
 24 25  1  0      
 25 26  2  0      
 26 27  1  0      
 19 27  1  0      
 22 27  2  0      
 28 29  1  0      
 29 30  1  0      
 31 32  1  0      
 31 33  1  0      
 30 31  1  0      
 19 28  1  0      
  5 21  1  0      
M  END

>  <RackCode>
HYCPK72336

>  <Cat. No.>
HY-13867A

>  <Product Name>
Bisindolylmaleimide I (hydrochloride)

>  <ROW>
B

>  <COLUMN>
7

>  <CAS No.>
176504-36-2

>  <MWt>
448.94

>  <Target>
GSK-3; PKC

>  <Saltdate>
Hydrochloride

>  <Smiles>
[H]Cl.O=C(C(C1=CN(CCCN(C)C)C2=C1C=CC=C2)=C3C4=CNC5=C4C=CC=C5)NC3=O

>  <Solvent>
DMSO Solution

>  <Batch No.>
253073

>  <Quantity>
10mM  * 50uL

>  <Pathway>
Epigenetics; PI3K/Akt/mTOR; Stem Cell/Wnt; TGF-beta/Smad

>  <Synonyms>
GF109203X (hydrochloride); Go 6850 (hydrochloride)

>  <Formula>
C25H25ClN4O2

>  <Research_Area>
Cancer; Metabolic Disease

>  <Clinical_Information>
No Development Reported

>  <SUPPLIER>
MedChemExpress

$$$$
Untitled Document
  ChemDraw06172015192D

 22 23  0  0  0  0  0  0  0  0999 V2000
   -0.5795   -3.0593    0.0000 N   0  0  0  0  0  0  0  0  0  0  0  0
    0.0880   -2.5744    0.0000 C   0  0  0  0  0  0  0  0  0  0  0  0
   -0.1670   -1.7898    0.0000 C   0  0  0  0  0  0  0  0  0  0  0  0
   -0.9920   -1.7898    0.0000 C   0  0  0  0  0  0  0  0  0  0  0  0
   -1.2469   -2.5744    0.0000 C   0  0  0  0  0  0  0  0  0  0  0  0
   -1.4769   -1.1223    0.0000 C   0  0  0  0  0  0  0  0  0  0  0  0
    0.3180   -1.1223    0.0000 C   0  0  0  0  0  0  0  0  0  0  0  0
    1.1430   -1.1223    0.0000 N   0  0  0  0  0  0  0  0  0  0  0  0
    1.5555   -0.4078    0.0000 C   0  0  0  0  0  0  0  0  0  0  0  0
    2.3805   -0.4078    0.0000 C   0  0  0  0  0  0  0  0  0  0  0  0
    2.7930    0.3066    0.0000 N   0  0  0  0  0  0  0  0  0  0  0  0
    1.5555   -1.8368    0.0000 C   0  0  0  0  0  0  0  0  0  0  0  0
   -1.1413   -0.3686    0.0000 C   0  0  0  0  0  0  0  0  0  0  0  0
   -1.6262    0.2988    0.0000 C   0  0  0  0  0  0  0  0  0  0  0  0
   -2.4467    0.2126    0.0000 C   0  0  0  0  0  0  0  0  0  0  0  0
   -2.7823   -0.5411    0.0000 C   0  0  0  0  0  0  0  0  0  0  0  0
   -2.2974   -1.2086    0.0000 C   0  0  0  0  0  0  0  0  0  0  0  0
   -1.4127    1.0957    0.0000 N   0  0  0  0  0  0  0  0  0  0  0  0
   -1.9961    1.6790    0.0000 C   0  0  0  0  0  0  0  0  0  0  0  0
   -1.7826    2.4759    0.0000 C   0  0  0  0  0  0  0  0  0  0  0  0
   -2.3659    3.0593    0.0000 C   0  0  0  0  0  0  0  0  0  0  0  0
   -2.7930    1.4655    0.0000 O   0  0  0  0  0  0  0  0  0  0  0  0
  1  2  1  0      
  2  3  2  0      
  3  4  1  0      
  4  5  2  0      
  5  1  1  0      
  4  6  1  0      
  3  7  1  0      
  7  8  1  0      
  8  9  1  0      
  9 10  1  0      
 10 11  1  0      
  8 12  1  0      
  6 13  1  0      
 13 14  2  0      
 14 15  1  0      
 15 16  2  0      
 16 17  1  0      
 17  6  2  0      
 14 18  1  0      
 18 19  1  0      
 19 20  1  0      
 20 21  2  0      
 19 22  2  0      
M  END

>  <RackCode>
HYCPK72336

>  <Cat. No.>
HY-133740

>  <Product Name>
MS117

>  <ROW>
C

>  <COLUMN>
7

>  <CAS No.>
2702280-86-0

>  <MWt>
298.38

>  <Target>
Histone Methyltransferase

>  <Saltdate>


>  <Smiles>
NCCN(C)CC1=CNC=C1C2=CC=CC(NC(C=C)=O)=C2

>  <Solvent>
DMSO Solution

>  <Batch No.>
85287

>  <Quantity>
10mM  * 50uL

>  <Pathway>
Epigenetics

>  <Synonyms>


>  <Formula>
C17H22N4O

>  <Research_Area>
Cancer

>  <Clinical_Information>
No Development Reported

>  <SUPPLIER>
MedChemExpress

$$$$
Untitled Document
  ChemDraw05101917262D

 26 29  0  0  0  0  0  0  0  0999 V2000
   -2.8621    1.0376    0.0000 N   0  0  0  0  0  0  0  0  0  0  0  0
   -2.1476    1.4501    0.0000 C   0  0  0  0  0  0  0  0  0  0  0  0
   -1.4331    1.8626    0.0000 C   0  0  0  0  0  0  0  0  0  0  0  0
   -0.7187    1.4501    0.0000 C   0  0  0  0  0  0  0  0  0  0  0  0
   -0.0042    1.8626    0.0000 C   0  0  0  0  0  0  0  0  0  0  0  0
   -0.0042    2.6876    0.0000 C   0  0  0  0  0  0  0  0  0  0  0  0
   -0.7187    3.1001    0.0000 N   0  0  0  0  0  0  0  0  0  0  0  0
   -1.4331    2.6876    0.0000 C   0  0  0  0  0  0  0  0  0  0  0  0
   -2.1476    3.1001    0.0000 O   0  0  0  0  0  0  0  0  0  0  0  0
    0.7804    2.9425    0.0000 S   0  0  0  0  0  0  0  0  0  0  0  0
    1.2653    2.2751    0.0000 C   0  0  0  0  0  0  0  0  0  0  0  0
    0.7804    1.6076    0.0000 C   0  0  0  0  0  0  0  0  0  0  0  0
    1.0354    0.8230    0.0000 C   0  0  0  0  0  0  0  0  0  0  0  0
    1.8423    0.6515    0.0000 C   0  0  0  0  0  0  0  0  0  0  0  0
    2.0973   -0.1331    0.0000 C   0  0  0  0  0  0  0  0  0  0  0  0
    1.5452   -0.7462    0.0000 C   0  0  0  0  0  0  0  0  0  0  0  0
    1.8002   -1.5308    0.0000 C   0  0  0  0  0  0  0  0  0  0  0  0
    2.6071   -1.7024    0.0000 C   0  0  0  0  0  0  0  0  0  0  0  0
    2.8621   -2.4870    0.0000 C   0  0  0  0  0  0  0  0  0  0  0  0
    2.3101   -3.1001    0.0000 C   0  0  0  0  0  0  0  0  0  0  0  0
    1.5031   -2.9286    0.0000 C   0  0  0  0  0  0  0  0  0  0  0  0
    1.2481   -2.1439    0.0000 C   0  0  0  0  0  0  0  0  0  0  0  0
    0.4412   -1.9724    0.0000 O   0  0  0  0  0  0  0  0  0  0  0  0
    0.7383   -0.5747    0.0000 C   0  0  0  0  0  0  0  0  0  0  0  0
    0.4833    0.2099    0.0000 C   0  0  0  0  0  0  0  0  0  0  0  0
   -0.7187    0.6251    0.0000 O   0  0  0  0  0  0  0  0  0  0  0  0
  1  2  3  0      
  2  3  1  0      
  3  4  1  0      
  4  5  1  0      
  5  6  2  0      
  6  7  1  0      
  7  8  1  0      
  3  8  1  0      
  8  9  2  0      
  6 10  1  0      
 10 11  1  0      
 11 12  2  0      
  5 12  1  0      
 12 13  1  0      
 13 14  2  0      
 14 15  1  0      
 15 16  2  0      
 16 17  1  0      
 17 18  2  0      
 18 19  1  0      
 19 20  2  0      
 20 21  1  0      
 21 22  2  0      
 17 22  1  0      
 22 23  1  0      
 16 24  1  0      
 24 25  2  0      
 13 25  1  0      
  4 26  2  0      
M  END

>  <RackCode>
HYCPK72336

>  <Cat. No.>
HY-50662

>  <Product Name>
A-769662

>  <ROW>
D

>  <COLUMN>
7

>  <CAS No.>
844499-71-4

>  <MWt>
360.39

>  <Target>
AMPK

>  <Saltdate>
Free Base

>  <Smiles>
N#CC1C(C2=C(NC1=O)SC=C2C3=CC=C(C4=CC=CC=C4O)C=C3)=O

>  <Solvent>
DMSO Solution

>  <Batch No.>
155879

>  <Quantity>
10mM  * 50uL

>  <Pathway>
Epigenetics; PI3K/Akt/mTOR

>  <Synonyms>


>  <Formula>
C20H12N2O3S

>  <Research_Area>
Cancer

>  <Clinical_Information>
No Development Reported

>  <SUPPLIER>
MedChemExpress

$$$$
Untitled Document
  ChemDraw11241615162D

 27 30  0  0  0  0  0  0  0  0999 V2000
    2.6526    0.9580    0.0000 C   0  0  0  0  0  0  0  0  0  0  0  0
    1.9382    0.5455    0.0000 C   0  0  0  0  0  0  0  0  0  0  0  0
    1.9382   -0.2795    0.0000 C   0  0  0  0  0  0  0  0  0  0  0  0
    1.2237   -0.6920    0.0000 C   0  0  0  0  0  0  0  0  0  0  0  0
    0.5092   -0.2795    0.0000 C   0  0  0  0  0  0  0  0  0  0  0  0
    0.5092    0.5455    0.0000 C   0  0  0  0  0  0  0  0  0  0  0  0
    1.2237    0.9580    0.0000 C   0  0  0  0  0  0  0  0  0  0  0  0
    3.3671    1.3705    0.0000 N   0  0  0  0  0  0  0  0  0  0  0  0
   -1.5109   -0.9695    0.0000 C   0  0  0  0  0  0  0  0  0  0  0  0
   -1.0984   -1.6840    0.0000 N   0  0  0  0  0  0  0  0  0  0  0  0
   -0.2915   -1.5125    0.0000 C   0  0  0  0  0  0  0  0  0  0  0  0
   -0.2052   -0.6920    0.0000 C   0  0  0  0  0  0  0  0  0  0  0  0
   -0.9589   -0.3564    0.0000 N   0  0  0  0  0  0  0  0  0  0  0  0
   -1.1304    0.4505    0.0000 C   0  0  0  0  0  0  0  0  0  0  0  0
   -1.9151    0.7055    0.0000 C   0  0  0  0  0  0  0  0  0  0  0  0
   -2.7540    2.6685    0.0000 N   0  0  0  0  0  0  0  0  0  0  0  0
   -1.9471    2.8400    0.0000 N   0  0  0  0  0  0  0  0  0  0  0  0
   -1.5346    2.1256    0.0000 C   0  0  0  0  0  0  0  0  0  0  0  0
   -2.0866    1.5125    0.0000 C   0  0  0  0  0  0  0  0  0  0  0  0
   -2.8403    1.8480    0.0000 C   0  0  0  0  0  0  0  0  0  0  0  0
   -3.3671    3.2205    0.0000 C   0  0  0  0  0  0  0  0  0  0  0  0
    1.5411   -2.6074    0.0000 N   0  0  0  0  0  0  0  0  0  0  0  0
    0.9891   -3.2205    0.0000 N   0  0  0  0  0  0  0  0  0  0  0  0
    0.2354   -2.8850    0.0000 C   0  0  0  0  0  0  0  0  0  0  0  0
    0.3216   -2.0645    0.0000 C   0  0  0  0  0  0  0  0  0  0  0  0
    1.1286   -1.8930    0.0000 C   0  0  0  0  0  0  0  0  0  0  0  0
    2.3616   -2.6937    0.0000 C   0  0  0  0  0  0  0  0  0  0  0  0
  1  2  1  0      
  2  3  1  0      
  3  4  2  0      
  4  5  1  0      
  5  6  2  0      
  6  7  1  0      
  2  7  2  0      
  1  8  3  0      
  9 10  2  0      
 10 11  1  0      
 11 12  2  0      
 12 13  1  0      
  9 13  1  0      
 14 15  1  0      
 16 17  1  0      
 17 18  2  0      
 18 19  1  0      
 19 20  2  0      
 16 20  1  0      
 16 21  1  0      
 15 19  1  0      
 13 14  1  0      
 22 23  1  0      
 23 24  2  0      
 24 25  1  0      
 25 26  2  0      
 22 26  1  0      
 22 27  1  0      
 11 25  1  0      
  5 12  1  0      
M  END

>  <RackCode>
HYCPK72336

>  <Cat. No.>
HY-19336

>  <Product Name>
BAZ2-ICR

>  <ROW>
E

>  <COLUMN>
7

>  <CAS No.>
1665195-94-7

>  <MWt>
357.41

>  <Target>
Epigenetic Reader Domain

>  <Saltdate>
Free Base

>  <Smiles>
N#CC1=CC=C(C2=C(C3=CN(C)N=C3)N=CN2CCC4=CN(C)N=C4)C=C1

>  <Solvent>
DMSO Solution

>  <Batch No.>
91225

>  <Quantity>
10mM  * 50uL

>  <Pathway>
Epigenetics

>  <Synonyms>


>  <Formula>
C20H19N7

>  <Research_Area>
Cancer

>  <Clinical_Information>
No Development Reported

>  <SUPPLIER>
MedChemExpress

$$$$
Untitled Document
  ChemDraw07291610492D

 24 25  0  0  0  0  0  0  0  0999 V2000
    2.1434   -0.5236    0.0000 C   0  0  0  0  0  0  0  0  0  0  0  0
    1.4288   -0.9362    0.0000 C   0  0  0  0  0  0  0  0  0  0  0  0
    0.7146   -0.5236    0.0000 C   0  0  0  0  0  0  0  0  0  0  0  0
    0.0000   -0.9362    0.0000 C   0  0  0  0  0  0  0  0  0  0  0  0
   -0.7146   -0.5236    0.0000 C   0  0  0  0  0  0  0  0  0  0  0  0
   -1.4288   -0.9362    0.0000 C   0  0  0  0  0  0  0  0  0  0  0  0
   -2.1434   -0.5236    0.0000 C   0  0  0  0  0  0  0  0  0  0  0  0
    2.1434    0.3013    0.0000 O   0  0  0  0  0  0  0  0  0  0  0  0
    2.8578   -0.9362    0.0000 N   0  0  0  0  0  0  0  0  0  0  0  0
   -2.1434    0.3013    0.0000 O   0  0  0  0  0  0  0  0  0  0  0  0
   -2.8578   -0.9362    0.0000 N   0  0  0  0  0  0  0  0  0  0  0  0
   -3.5723   -0.5236    0.0000 C   0  0  0  0  0  0  0  0  0  0  0  0
   -4.2867   -0.9362    0.0000 C   0  0  0  0  0  0  0  0  0  0  0  0
   -5.0012   -0.5236    0.0000 C   0  0  0  0  0  0  0  0  0  0  0  0
   -5.0012    0.3013    0.0000 C   0  0  0  0  0  0  0  0  0  0  0  0
   -4.2867    0.7140    0.0000 C   0  0  0  0  0  0  0  0  0  0  0  0
   -3.5723    0.3013    0.0000 C   0  0  0  0  0  0  0  0  0  0  0  0
    3.5722   -0.5236    0.0000 C   0  0  0  0  0  0  0  0  0  0  0  0
    3.5722    0.3013    0.0000 C   0  0  0  0  0  0  0  0  0  0  0  0
    4.2867    0.7140    0.0000 C   0  0  0  0  0  0  0  0  0  0  0  0
    5.0012    0.3013    0.0000 C   0  0  0  0  0  0  0  0  0  0  0  0
    5.0012   -0.5236    0.0000 C   0  0  0  0  0  0  0  0  0  0  0  0
    4.2867   -0.9362    0.0000 C   0  0  0  0  0  0  0  0  0  0  0  0
    3.0408    0.9362    0.0000 N   0  0  0  0  0  0  0  0  0  0  0  0
  1  2  1  0      
  2  3  1  0      
  3  4  1  0      
  4  5  1  0      
  5  6  1  0      
  6  7  1  0      
  1  8  2  0      
  1  9  1  0      
  7 10  2  0      
  7 11  1  0      
 12 13  1  0      
 13 14  2  0      
 14 15  1  0      
 15 16  2  0      
 16 17  1  0      
 12 17  2  0      
 11 12  1  0      
 18 19  1  0      
 19 20  2  0      
 20 21  1  0      
 21 22  2  0      
 22 23  1  0      
 18 23  2  0      
 19 24  1  0      
  9 18  1  0      
M  END

>  <RackCode>
HYCPK72336

>  <Cat. No.>
HY-100384

>  <Product Name>
NKL 22

>  <ROW>
F

>  <COLUMN>
7

>  <CAS No.>
537034-15-4

>  <MWt>
325.40

>  <Target>
HDAC

>  <Saltdate>
Free Base

>  <Smiles>
O=C(NC1=CC=CC=C1N)CCCCCC(NC2=CC=CC=C2)=O

>  <Solvent>
DMSO Solution

>  <Batch No.>
21041

>  <Quantity>
10mM  * 50uL

>  <Pathway>
Cell Cycle/DNA Damage; Epigenetics

>  <Synonyms>


>  <Formula>
C19H23N3O2

>  <Research_Area>
Neurological Disease

>  <Clinical_Information>
No Development Reported

>  <SUPPLIER>
MedChemExpress

$$$$
Untitled Document
  ChemDraw01031913362D

 11 11  0  0  0  0  0  0  0  0999 V2000
    1.4289    0.4125    0.0000 C   0  0  0  0  0  0  0  0  0  0  0  0
    0.7145   -0.0000    0.0000 C   0  0  0  0  0  0  0  0  0  0  0  0
    0.0000    0.4125    0.0000 C   0  0  0  0  0  0  0  0  0  0  0  0
   -0.7145   -0.0000    0.0000 C   0  0  0  0  0  0  0  0  0  0  0  0
   -0.7145   -0.8250    0.0000 C   0  0  0  0  0  0  0  0  0  0  0  0
    0.0000   -1.2375    0.0000 C   0  0  0  0  0  0  0  0  0  0  0  0
    0.7145   -0.8250    0.0000 C   0  0  0  0  0  0  0  0  0  0  0  0
    1.4289    1.2375    0.0000 O   0  0  0  0  0  0  0  0  0  0  0  0
    2.1434   -0.0000    0.0000 N   0  0  0  0  0  0  0  0  0  0  0  0
   -1.4289    0.4125    0.0000 O   0  0  0  0  0  0  0  0  0  0  0  0
   -2.1434   -0.0000    0.0000 C   0  0  0  0  0  0  0  0  0  0  0  0
  1  2  1  0      
  2  3  1  0      
  3  4  2  0      
  4  5  1  0      
  5  6  2  0      
  6  7  1  0      
  2  7  2  0      
  1  8  2  0      
  1  9  1  0      
 10 11  1  0      
  4 10  1  0      
M  END

>  <RackCode>
HYCPK72336

>  <Cat. No.>
HY-121497

>  <Product Name>
3-Methoxybenzamide

>  <ROW>
G

>  <COLUMN>
7

>  <CAS No.>
5813-86-5

>  <MWt>
151.16

>  <Target>
Bacterial; PARP

>  <Saltdate>


>  <Smiles>
O=C(N)C1=CC=CC(OC)=C1

>  <Solvent>
DMSO Solution

>  <Batch No.>
155452

>  <Quantity>
10mM  * 50uL

>  <Pathway>
Anti-infection; Cell Cycle/DNA Damage; Epigenetics

>  <Synonyms>
3-MBA

>  <Formula>
C8H9NO2

>  <Research_Area>
Cancer

>  <Clinical_Information>
No Development Reported

>  <SUPPLIER>
MedChemExpress

$$$$
Untitled Document
  ChemDraw08032013102D

 34 38  0  0  0  0  0  0  0  0999 V2000
    3.2065    0.9085    0.0000 N   0  0  0  0  0  0  0  0  0  0  0  0
    2.4920    1.3210    0.0000 C   0  0  0  0  0  0  0  0  0  0  0  0
    2.4920    2.1460    0.0000 O   0  0  0  0  0  0  0  0  0  0  0  0
    1.7776    0.9085    0.0000 N   0  0  0  0  0  0  0  0  0  0  0  0
    1.0631    1.3210    0.0000 C   0  0  0  0  0  0  0  0  0  0  0  0
    0.3486    0.9085    0.0000 C   0  0  0  0  0  0  0  0  0  0  0  0
   -0.3658    1.3210    0.0000 C   0  0  0  0  0  0  0  0  0  0  0  0
   -0.3658    2.1460    0.0000 C   0  0  0  0  0  0  0  0  0  0  0  0
    0.3486    2.5585    0.0000 C   0  0  0  0  0  0  0  0  0  0  0  0
    1.0631    2.1460    0.0000 C   0  0  0  0  0  0  0  0  0  0  0  0
   -1.0803    0.9085    0.0000 N   0  0  0  0  0  0  0  0  0  0  0  0
   -1.0803   -1.5665    0.0000 N   0  0  0  0  0  0  0  0  0  0  0  0
   -0.3658   -1.1540    0.0000 C   0  0  0  0  0  0  0  0  0  0  0  0
   -0.3658   -0.3290    0.0000 N   0  0  0  0  0  0  0  0  0  0  0  0
   -1.0803    0.0835    0.0000 C   0  0  0  0  0  0  0  0  0  0  0  0
   -1.7948   -0.3290    0.0000 C   0  0  0  0  0  0  0  0  0  0  0  0
   -2.5093    0.0835    0.0000 C   0  0  0  0  0  0  0  0  0  0  0  0
   -3.2237   -0.3290    0.0000 C   0  0  0  0  0  0  0  0  0  0  0  0
   -3.2237   -1.1540    0.0000 C   0  0  0  0  0  0  0  0  0  0  0  0
   -2.5093   -1.5665    0.0000 C   0  0  0  0  0  0  0  0  0  0  0  0
   -1.7948   -1.1540    0.0000 C   0  0  0  0  0  0  0  0  0  0  0  0
   -5.2439   -1.8440    0.0000 N   0  0  0  0  0  0  0  0  0  0  0  0
   -4.8314   -2.5585    0.0000 N   0  0  0  0  0  0  0  0  0  0  0  0
   -4.0244   -2.3870    0.0000 C   0  0  0  0  0  0  0  0  0  0  0  0
   -3.9382   -1.5665    0.0000 C   0  0  0  0  0  0  0  0  0  0  0  0
   -4.6919   -1.2309    0.0000 C   0  0  0  0  0  0  0  0  0  0  0  0
   -6.0644   -1.7578    0.0000 C   0  0  0  0  0  0  0  0  0  0  0  0
    3.9210    1.3210    0.0000 C   0  0  0  0  0  0  0  0  0  0  0  0
    4.6354    0.9085    0.0000 C   0  0  0  0  0  0  0  0  0  0  0  0
    5.3499    1.3210    0.0000 C   0  0  0  0  0  0  0  0  0  0  0  0
    5.3499    2.1460    0.0000 C   0  0  0  0  0  0  0  0  0  0  0  0
    4.6354    2.5585    0.0000 C   0  0  0  0  0  0  0  0  0  0  0  0
    3.9210    2.1460    0.0000 C   0  0  0  0  0  0  0  0  0  0  0  0
    6.0644    0.9085    0.0000 F   0  0  0  0  0  0  0  0  0  0  0  0
  1  2  1  0      
  2  3  2  0      
  2  4  1  0      
  5  6  1  0      
  6  7  2  0      
  7  8  1  0      
  8  9  2  0      
  9 10  1  0      
  5 10  2  0      
 12 13  1  0      
 13 14  2  0      
 14 15  1  0      
 15 16  2  0      
 16 17  1  0      
 17 18  2  0      
 18 19  1  0      
 19 20  2  0      
 20 21  1  0      
 12 21  2  0      
 16 21  1  0      
 22 23  1  0      
 23 24  2  0      
 24 25  1  0      
 25 26  2  0      
 22 26  1  0      
 22 27  1  0      
 19 25  1  0      
 11 15  1  0      
  7 11  1  0      
  4  5  1  0      
 28 29  1  0      
 29 30  2  0      
 30 31  1  0      
 31 32  2  0      
 32 33  1  0      
 28 33  2  0      
 30 34  1  0      
  1 28  1  0      
M  END

>  <RackCode>
HYCPK72336

>  <Cat. No.>
HY-131339

>  <Product Name>
SP-96

>  <ROW>
H

>  <COLUMN>
7

>  <CAS No.>
2682114-54-9

>  <MWt>
453.47

>  <Target>
Aurora Kinase

>  <Saltdate>


>  <Smiles>
O=C(NC1=CC=CC(NC2=C3C=CC(C4=CN(C)N=C4)=CC3=NC=N2)=C1)NC5=CC=CC(F)=C5

>  <Solvent>
DMSO Solution

>  <Batch No.>
85073

>  <Quantity>
10mM  * 50uL

>  <Pathway>
Cell Cycle/DNA Damage; Epigenetics

>  <Synonyms>


>  <Formula>
C25H20FN7O

>  <Research_Area>
Cancer

>  <Clinical_Information>
No Development Reported

>  <SUPPLIER>
MedChemExpress

$$$$
Untitled Document
  ChemDraw09081711192D

 21 23  0  0  0  0  0  0  0  0999 V2000
   -1.4289    0.2063    0.0000 C   0  0  0  0  0  0  0  0  0  0  0  0
   -0.7145   -0.2063    0.0000 C   0  0  0  0  0  0  0  0  0  0  0  0
   -0.7145   -1.0313    0.0000 C   0  0  0  0  0  0  0  0  0  0  0  0
   -1.4289   -1.4438    0.0000 C   0  0  0  0  0  0  0  0  0  0  0  0
   -2.1434   -1.0313    0.0000 C   0  0  0  0  0  0  0  0  0  0  0  0
   -2.8579   -1.4438    0.0000 C   0  0  0  0  0  0  0  0  0  0  0  0
   -3.5724   -1.0313    0.0000 C   0  0  0  0  0  0  0  0  0  0  0  0
   -3.5724   -0.2063    0.0000 C   0  0  0  0  0  0  0  0  0  0  0  0
   -2.8579    0.2063    0.0000 C   0  0  0  0  0  0  0  0  0  0  0  0
   -2.1434   -0.2063    0.0000 C   0  0  0  0  0  0  0  0  0  0  0  0
    0.0000    0.2063    0.0000 C   0  0  0  0  0  0  0  0  0  0  0  0
    0.0000    1.0313    0.0000 O   0  0  0  0  0  0  0  0  0  0  0  0
    0.7145   -0.2063    0.0000 N   0  0  0  0  0  0  0  0  0  0  0  0
    0.0000   -1.4438    0.0000 O   0  0  0  0  0  0  0  0  0  0  0  0
    1.4289    0.2063    0.0000 C   0  0  0  0  0  0  0  0  0  0  0  0
    1.4289    1.0313    0.0000 C   0  0  0  0  0  0  0  0  0  0  0  0
    2.1434    1.4438    0.0000 C   0  0  0  0  0  0  0  0  0  0  0  0
    2.8579    1.0313    0.0000 C   0  0  0  0  0  0  0  0  0  0  0  0
    2.8579    0.2063    0.0000 C   0  0  0  0  0  0  0  0  0  0  0  0
    2.1434   -0.2063    0.0000 C   0  0  0  0  0  0  0  0  0  0  0  0
    3.5724    1.4438    0.0000 Cl  0  0  0  0  0  0  0  0  0  0  0  0
  1  2  1  0      
  2  3  2  0      
  3  4  1  0      
  4  5  2  0      
  5  6  1  0      
  6  7  2  0      
  7  8  1  0      
  8  9  2  0      
  9 10  1  0      
  1 10  2  0      
  5 10  1  0      
 11 12  2  0      
 11 13  1  0      
  2 11  1  0      
  3 14  1  0      
 15 16  1  0      
 16 17  2  0      
 17 18  1  0      
 18 19  2  0      
 19 20  1  0      
 15 20  2  0      
 18 21  1  0      
 13 15  1  0      
M  END

>  <RackCode>
HYCPK72336

>  <Cat. No.>
HY-104068

>  <Product Name>
Naphthol AS-E

>  <ROW>
I

>  <COLUMN>
7

>  <CAS No.>
92-78-4

>  <MWt>
297.74

>  <Target>
Epigenetic Reader Domain; Histone Acetyltransferase

>  <Saltdate>


>  <Smiles>
O=C(C1=C(O)C=C2C=CC=CC2=C1)NC3=CC=C(Cl)C=C3

>  <Solvent>
DMSO Solution

>  <Batch No.>
90277

>  <Quantity>
10mM  * 50uL

>  <Pathway>
Epigenetics

>  <Synonyms>


>  <Formula>
C17H12ClNO2

>  <Research_Area>
Cancer

>  <Clinical_Information>
No Development Reported

>  <SUPPLIER>
MedChemExpress

$$$$
Untitled Document
  ChemDraw09131613032D

 30 33  0  0  0  0  0  0  0  0999 V2000
    1.5263   -0.9489    0.0000 C   0  0  0  0  0  0  0  0  0  0  0  0
    0.8119   -0.5364    0.0000 C   0  0  0  0  0  0  0  0  0  0  0  0
    0.0974   -0.9489    0.0000 C   0  0  0  0  0  0  0  0  0  0  0  0
    1.5263   -1.7739    0.0000 O   0  0  0  0  0  0  0  0  0  0  0  0
    2.2408   -0.5364    0.0000 N   0  0  0  0  0  0  0  0  0  0  0  0
    3.6698    1.9386    0.0000 N   0  0  0  0  0  0  0  0  0  0  0  0
    4.3842    1.5261    0.0000 C   0  0  0  0  0  0  0  0  0  0  0  0
    4.3842    0.7011    0.0000 C   0  0  0  0  0  0  0  0  0  0  0  0
    3.6698    0.2886    0.0000 C   0  0  0  0  0  0  0  0  0  0  0  0
    2.9553    0.7011    0.0000 C   0  0  0  0  0  0  0  0  0  0  0  0
    2.2408    0.2886    0.0000 C   0  0  0  0  0  0  0  0  0  0  0  0
    1.5263    0.7011    0.0000 C   0  0  0  0  0  0  0  0  0  0  0  0
    1.5263    1.5261    0.0000 C   0  0  0  0  0  0  0  0  0  0  0  0
    2.2408    1.9386    0.0000 C   0  0  0  0  0  0  0  0  0  0  0  0
    2.9553    1.5261    0.0000 C   0  0  0  0  0  0  0  0  0  0  0  0
   -1.3707   -0.8719    0.0000 O   0  0  0  0  0  0  0  0  0  0  0  0
   -0.6171   -0.5364    0.0000 C   0  0  0  0  0  0  0  0  0  0  0  0
   -0.7033    0.2841    0.0000 C   0  0  0  0  0  0  0  0  0  0  0  0
   -1.5103    0.4557    0.0000 C   0  0  0  0  0  0  0  0  0  0  0  0
   -1.9228   -0.2588    0.0000 C   0  0  0  0  0  0  0  0  0  0  0  0
   -2.7433   -0.3451    0.0000 C   0  0  0  0  0  0  0  0  0  0  0  0
   -3.2282    0.3224    0.0000 C   0  0  0  0  0  0  0  0  0  0  0  0
   -4.0487    0.2361    0.0000 C   0  0  0  0  0  0  0  0  0  0  0  0
   -4.3842   -0.5175    0.0000 C   0  0  0  0  0  0  0  0  0  0  0  0
   -3.8993   -1.1850    0.0000 C   0  0  0  0  0  0  0  0  0  0  0  0
   -3.0788   -1.0987    0.0000 C   0  0  0  0  0  0  0  0  0  0  0  0
   -4.2349   -1.9386    0.0000 Cl  0  0  0  0  0  0  0  0  0  0  0  0
   -2.8926    1.0761    0.0000 Cl  0  0  0  0  0  0  0  0  0  0  0  0
    0.8119    0.2886    0.0000 C   0  0  0  0  0  0  0  0  0  0  0  0
    0.8119    1.1136    0.0000 N   0  0  0  0  0  0  0  0  0  0  0  0
  1  2  1  0      
  2  3  2  0      
  1  4  2  0      
  1  5  1  0      
  6  7  2  0      
  7  8  1  0      
  8  9  2  0      
  9 10  1  0      
 10 11  2  0      
 11 12  1  0      
 12 13  2  0      
 13 14  1  0      
 14 15  2  0      
  6 15  1  0      
 10 15  1  0      
  5 11  1  0      
 16 17  1  0      
 17 18  2  0      
 18 19  1  0      
 19 20  2  0      
 16 20  1  0      
 21 22  1  0      
 22 23  2  0      
 23 24  1  0      
 24 25  2  0      
 25 26  1  0      
 21 26  2  0      
 25 27  1  0      
 22 28  1  0      
 20 21  1  0      
  3 17  1  0      
 29 30  3  0      
  2 29  1  0      
M  END

>  <RackCode>
HYCPK72336

>  <Cat. No.>
HY-100578

>  <Product Name>
AGK2

>  <ROW>
J

>  <COLUMN>
7

>  <CAS No.>
304896-28-4

>  <MWt>
434.27

>  <Target>
Apoptosis; Sirtuin

>  <Saltdate>
Free Base

>  <Smiles>
O=C(NC1=C2C=CC=NC2=CC=C1)/C(C#N)=C/C3=CC=C(C4=CC(Cl)=CC=C4Cl)O3

>  <Solvent>
DMSO Solution

>  <Batch No.>
114972

>  <Quantity>
10mM  * 50uL

>  <Pathway>
Apoptosis; Cell Cycle/DNA Damage; Epigenetics

>  <Synonyms>


>  <Formula>
C23H13Cl2N3O2

>  <Research_Area>
Cancer

>  <Clinical_Information>
No Development Reported

>  <SUPPLIER>
MedChemExpress

$$$$
Untitled Document
  ChemDraw01191808542D

 17 19  0  0  0  0  0  0  0  0999 V2000
   -1.0680    0.8221    0.0000 C   0  0  0  0  0  0  0  0  0  0  0  0
   -0.3560    0.4111    0.0000 C   0  0  0  0  0  0  0  0  0  0  0  0
    0.3560    0.8221    0.0000 C   0  0  0  0  0  0  0  0  0  0  0  0
    0.3560    1.6443    0.0000 C   0  0  0  0  0  0  0  0  0  0  0  0
   -0.3560    2.0553    0.0000 C   0  0  0  0  0  0  0  0  0  0  0  0
   -1.0680    1.6443    0.0000 C   0  0  0  0  0  0  0  0  0  0  0  0
    1.0680    0.4111    0.0000 C   0  0  0  0  0  0  0  0  0  0  0  0
    1.7800    0.8221    0.0000 C   0  0  0  0  0  0  0  0  0  0  0  0
    1.7800    1.6443    0.0000 C   0  0  0  0  0  0  0  0  0  0  0  0
    1.0680    2.0553    0.0000 N   0  0  0  0  0  0  0  0  0  0  0  0
    1.0680   -0.4111    0.0000 N   0  0  0  0  0  0  0  0  0  0  0  0
    0.3560   -0.8221    0.0000 C   0  0  0  0  0  0  0  0  0  0  0  0
    0.3560   -1.6443    0.0000 C   0  0  0  0  0  0  0  0  0  0  0  0
    1.0680   -2.0553    0.0000 N   0  0  0  0  0  0  0  0  0  0  0  0
    1.7800   -1.6443    0.0000 C   0  0  0  0  0  0  0  0  0  0  0  0
    1.7800   -0.8221    0.0000 C   0  0  0  0  0  0  0  0  0  0  0  0
   -1.7800    2.0553    0.0000 Cl  0  0  0  0  0  0  0  0  0  0  0  0
  1  2  2  0      
  2  3  1  0      
  3  4  2  0      
  4  5  1  0      
  5  6  2  0      
  6  1  1  0      
  3  7  1  0      
  7  8  2  0      
  8  9  1  0      
  9 10  2  0      
 10  4  1  0      
  7 11  1  0      
 11 12  1  0      
 12 13  1  0      
 13 14  1  0      
 14 15  1  0      
 15 16  1  0      
 16 11  1  0      
  6 17  1  0      
M  END

>  <RackCode>
HYCPK72336

>  <Cat. No.>
HY-W020111

>  <Product Name>
7-Chloro-4-(piperazin-1-yl)quinoline

>  <ROW>
K

>  <COLUMN>
7

>  <CAS No.>
837-52-5

>  <MWt>
247.72

>  <Target>
Parasite; Sirtuin

>  <Saltdate>


>  <Smiles>
ClC1=CC2=C(C(N3CCNCC3)=CC=N2)C=C1

>  <Solvent>
DMSO Solution

>  <Batch No.>
243556

>  <Quantity>
10mM  * 50uL

>  <Pathway>
Anti-infection; Cell Cycle/DNA Damage; Epigenetics

>  <Synonyms>


>  <Formula>
C13H14ClN3

>  <Research_Area>
Infection

>  <Clinical_Information>
No Development Reported

>  <SUPPLIER>
MedChemExpress

$$$$
Untitled Document
  ChemDraw07201617042D

 23 26  0  0  0  0  0  0  0  0999 V2000
   -1.7937    0.0793    0.0000 C   0  0  0  0  0  0  0  0  0  0  0  0
   -1.7937   -0.7465    0.0000 C   0  0  0  0  0  0  0  0  0  0  0  0
   -1.0772   -1.1566    0.0000 C   0  0  0  0  0  0  0  0  0  0  0  0
   -0.3664   -0.7465    0.0000 C   0  0  0  0  0  0  0  0  0  0  0  0
   -0.3664    0.0793    0.0000 C   0  0  0  0  0  0  0  0  0  0  0  0
   -1.0772    0.4949    0.0000 C   0  0  0  0  0  0  0  0  0  0  0  0
    0.3500   -1.1566    0.0000 C   0  0  0  0  0  0  0  0  0  0  0  0
    1.0608   -0.7465    0.0000 C   0  0  0  0  0  0  0  0  0  0  0  0
    1.0608    0.0793    0.0000 C   0  0  0  0  0  0  0  0  0  0  0  0
    0.3500    0.4949    0.0000 C   0  0  0  0  0  0  0  0  0  0  0  0
    0.3500   -1.9822    0.0000 C   0  0  0  0  0  0  0  0  0  0  0  0
    1.0608   -2.3922    0.0000 N   0  0  0  0  0  0  0  0  0  0  0  0
    1.7773   -1.9822    0.0000 C   0  0  0  0  0  0  0  0  0  0  0  0
    1.7773   -1.1566    0.0000 C   0  0  0  0  0  0  0  0  0  0  0  0
    1.6733    0.6316    0.0000 N   0  0  0  0  0  0  0  0  0  0  0  0
    1.3397    1.3861    0.0000 C   0  0  0  0  0  0  0  0  0  0  0  0
    0.5195    1.2987    0.0000 N   0  0  0  0  0  0  0  0  0  0  0  0
   -2.5370   -1.1730    0.0000 F   0  0  0  0  0  0  0  0  0  0  0  0
    1.8319    1.8729    0.0000 C   0  0  0  0  0  0  0  0  0  0  0  0
    1.6624    2.4906    0.0000 C   0  0  0  0  0  0  0  0  0  0  0  0
    2.2803    2.3267    0.0000 C   0  0  0  0  0  0  0  0  0  0  0  0
    2.5370    1.6815    0.0000 C   0  0  0  0  0  0  0  0  0  0  0  0
   -0.1640   -2.4906    0.0000 O   0  0  0  0  0  0  0  0  0  0  0  0
  1  2  1  0      
  2  3  2  0      
  3  4  1  0      
  4  5  1  0      
  5  6  1  0      
  6  1  2  0      
  4  7  2  0      
  7  8  1  0      
  8  9  2  0      
  9 10  1  0      
 10  5  2  0      
  7 11  1  0      
 11 12  1  0      
 12 13  1  0      
 13 14  2  0      
 14  8  1  0      
  9 15  1  0      
 15 16  2  0      
 16 17  1  0      
 17 10  1  0      
  2 18  1  0      
 16 19  1  0      
 19 20  1  0      
 19 21  1  0      
 19 22  1  0      
 11 23  2  0      
M  END

>  <RackCode>
HYCPK72336

>  <Cat. No.>
HY-14435

>  <Product Name>
Pyridone 6

>  <ROW>
L

>  <COLUMN>
7

>  <CAS No.>
457081-03-7

>  <MWt>
309.34

>  <Target>
JAK

>  <Saltdate>
Free Base

>  <Smiles>
FC1=CC2=C(C(NC=C3)=O)C3=C(N=C(C(C)(C)C)N4)C4=C2C=C1

>  <Solvent>
DMSO Solution

>  <Batch No.>
09635

>  <Quantity>
10mM  * 50uL

>  <Pathway>
Epigenetics; JAK/STAT Signaling; Protein Tyrosine Kinase/RTK; Stem Cell/Wnt

>  <Synonyms>


>  <Formula>
C18H16FN3O

>  <Research_Area>
Cancer

>  <Clinical_Information>
No Development Reported

>  <SUPPLIER>
MedChemExpress

$$$$
Untitled Document
  ChemDraw12081612532D

 24 27  0  0  0  0  0  0  0  0999 V2000
   -1.4289    0.8250    0.0000 N   0  0  0  0  0  0  0  0  0  0  0  0
   -1.4289    0.0000    0.0000 C   0  0  0  0  0  0  0  0  0  0  0  0
   -0.7145   -0.4125    0.0000 C   0  0  0  0  0  0  0  0  0  0  0  0
   -0.0000    0.0000    0.0000 C   0  0  0  0  0  0  0  0  0  0  0  0
   -0.0000    0.8250    0.0000 C   0  0  0  0  0  0  0  0  0  0  0  0
   -0.7145    1.2375    0.0000 C   0  0  0  0  0  0  0  0  0  0  0  0
    0.7145   -0.4125    0.0000 C   0  0  0  0  0  0  0  0  0  0  0  0
    1.4289    0.0000    0.0000 C   0  0  0  0  0  0  0  0  0  0  0  0
    1.4289    0.8250    0.0000 N   0  0  0  0  0  0  0  0  0  0  0  0
    0.7145    1.2375    0.0000 C   0  0  0  0  0  0  0  0  0  0  0  0
   -2.1434   -0.4125    0.0000 N   0  0  0  0  0  0  0  0  0  0  0  0
    2.1434   -0.4125    0.0000 N   0  0  0  0  0  0  0  0  0  0  0  0
   -0.7145    2.0625    0.0000 N   0  0  0  0  0  0  0  0  0  0  0  0
    0.7145    2.0625    0.0000 N   0  0  0  0  0  0  0  0  0  0  0  0
   -2.8970   -0.0769    0.0000 C   0  0  0  0  0  0  0  0  0  0  0  0
   -3.4490   -0.6900    0.0000 C   0  0  0  0  0  0  0  0  0  0  0  0
   -3.0365   -1.4045    0.0000 C   0  0  0  0  0  0  0  0  0  0  0  0
   -2.2296   -1.2330    0.0000 C   0  0  0  0  0  0  0  0  0  0  0  0
    2.2297   -1.2330    0.0000 C   0  0  0  0  0  0  0  0  0  0  0  0
    3.0365   -1.4045    0.0000 C   0  0  0  0  0  0  0  0  0  0  0  0
    3.4490   -0.6900    0.0000 C   0  0  0  0  0  0  0  0  0  0  0  0
    2.8970   -0.0769    0.0000 C   0  0  0  0  0  0  0  0  0  0  0  0
   -0.7145   -1.2375    0.0000 C   0  0  0  0  0  0  0  0  0  0  0  0
   -0.7145   -2.0625    0.0000 N   0  0  0  0  0  0  0  0  0  0  0  0
  1  2  2  0      
  2  3  1  0      
  3  4  2  0      
  4  5  1  0      
  5  6  2  0      
  6  1  1  0      
  4  7  1  0      
  7  8  2  0      
  8  9  1  0      
  9 10  2  0      
 10  5  1  0      
  2 11  1  0      
  8 12  1  0      
  6 13  1  0      
 10 14  1  0      
 11 15  1  0      
 15 16  1  0      
 16 17  1  0      
 17 18  1  0      
 18 11  1  0      
 12 19  1  0      
 19 20  1  0      
 20 21  1  0      
 21 22  1  0      
 22 12  1  0      
 23 24  3  0      
  3 23  1  0      
M  STY  1   1 SUP
M  SLB  1   1   1
M  SAL   1  2  23  24
M  SBL   1  1  27
M  SMT   1 CN
M  SBV   1  27    0.0000    0.8250
M  END

>  <RackCode>
HYCPK72336

>  <Cat. No.>
HY-19731

>  <Product Name>
SID 3712249

>  <ROW>
M

>  <COLUMN>
7

>  <CAS No.>
522606-67-3

>  <MWt>
323.40

>  <Target>
Apoptosis; MicroRNA

>  <Saltdate>
Free Base

>  <Smiles>
NC1=C2C(C=C(N3CCCC3)N=C2N)=C(C#N)C(N4CCCC4)=N1

>  <Solvent>
DMSO Solution

>  <Batch No.>
19987

>  <Quantity>
10mM  * 50uL

>  <Pathway>
Apoptosis; Epigenetics

>  <Synonyms>
MiR-544 Inhibitor 1

>  <Formula>
C17H21N7

>  <Research_Area>
Cancer

>  <Clinical_Information>
No Development Reported

>  <SUPPLIER>
MedChemExpress

$$$$
Untitled Document
  ChemDraw05101917262D

 31 34  0  0  0  0  0  0  0  0999 V2000
   -1.1494    3.0813    0.0000 O   0  0  0  0  0  0  0  0  0  0  0  0
   -0.6645    2.4139    0.0000 C   0  0  0  0  0  0  0  0  0  0  0  0
   -1.0000    1.6602    0.0000 C   0  0  0  0  0  0  0  0  0  0  0  0
   -0.5875    0.9457    0.0000 C   0  0  0  0  0  0  0  0  0  0  0  0
    0.2330    0.8595    0.0000 N   0  0  0  0  0  0  0  0  0  0  0  0
    0.5685    0.1058    0.0000 C   0  0  0  0  0  0  0  0  0  0  0  0
    1.3890    0.0196    0.0000 C   0  0  0  0  0  0  0  0  0  0  0  0
    1.7246   -0.7341    0.0000 C   0  0  0  0  0  0  0  0  0  0  0  0
    1.2396   -1.4015    0.0000 C   0  0  0  0  0  0  0  0  0  0  0  0
    1.5752   -2.1552    0.0000 C   0  0  0  0  0  0  0  0  0  0  0  0
    2.3957   -2.2414    0.0000 N   0  0  0  0  0  0  0  0  0  0  0  0
    2.8806   -1.5740    0.0000 C   0  0  0  0  0  0  0  0  0  0  0  0
    3.7011   -1.6602    0.0000 C   0  0  0  0  0  0  0  0  0  0  0  0
    4.0366   -2.4139    0.0000 O   0  0  0  0  0  0  0  0  0  0  0  0
    3.5517   -3.0813    0.0000 C   0  0  0  0  0  0  0  0  0  0  0  0
    2.7312   -2.9951    0.0000 C   0  0  0  0  0  0  0  0  0  0  0  0
    1.0903   -2.8226    0.0000 O   0  0  0  0  0  0  0  0  0  0  0  0
    0.4192   -1.3153    0.0000 C   0  0  0  0  0  0  0  0  0  0  0  0
    0.0836   -0.5616    0.0000 C   0  0  0  0  0  0  0  0  0  0  0  0
   -1.1395    0.3327    0.0000 O   0  0  0  0  0  0  0  0  0  0  0  0
   -1.8932    0.6682    0.0000 C   0  0  0  0  0  0  0  0  0  0  0  0
   -2.6077    0.2557    0.0000 C   0  0  0  0  0  0  0  0  0  0  0  0
   -2.6077   -0.5693    0.0000 C   0  0  0  0  0  0  0  0  0  0  0  0
   -1.8932   -0.9818    0.0000 F   0  0  0  0  0  0  0  0  0  0  0  0
   -3.3222   -0.9818    0.0000 C   0  0  0  0  0  0  0  0  0  0  0  0
   -4.0366   -0.5693    0.0000 C   0  0  0  0  0  0  0  0  0  0  0  0
   -4.0366    0.2557    0.0000 C   0  0  0  0  0  0  0  0  0  0  0  0
   -3.3222    0.6682    0.0000 C   0  0  0  0  0  0  0  0  0  0  0  0
   -3.3222    1.4932    0.0000 Cl  0  0  0  0  0  0  0  0  0  0  0  0
   -1.8070    1.4887    0.0000 N   0  0  0  0  0  0  0  0  0  0  0  0
    0.1560    2.5001    0.0000 N   0  0  0  0  0  0  0  0  0  0  0  0
  1  2  2  0      
  2  3  1  0      
  3  4  2  0      
  4  5  1  0      
  5  6  1  0      
  6  7  2  0      
  7  8  1  0      
  8  9  2  0      
  9 10  1  0      
 10 11  1  0      
 11 12  1  0      
 12 13  1  0      
 13 14  1  0      
 14 15  1  0      
 15 16  1  0      
 11 16  1  0      
 10 17  2  0      
  9 18  1  0      
 18 19  2  0      
  6 19  1  0      
  4 20  1  0      
 20 21  1  0      
 21 22  1  0      
 22 23  2  0      
 23 24  1  0      
 23 25  1  0      
 25 26  2  0      
 26 27  1  0      
 27 28  2  0      
 22 28  1  0      
 28 29  1  0      
 21 30  2  0      
  3 30  1  0      
  2 31  1  0      
M  END

>  <RackCode>
HYCPK72336

>  <Cat. No.>
HY-100895

>  <Product Name>
SAR-20347

>  <ROW>
N

>  <COLUMN>
7

>  <CAS No.>
1450881-55-6

>  <MWt>
444.84

>  <Target>
JAK

>  <Saltdate>
Free Base

>  <Smiles>
O=C(C1=C(NC2=CC=C(C(N3CCOCC3)=O)C=C2)OC(C4=C(F)C=CC=C4Cl)=N1)N

>  <Solvent>
DMSO Solution

>  <Batch No.>
27016

>  <Quantity>
10mM  * 50uL

>  <Pathway>
Epigenetics; JAK/STAT Signaling; Protein Tyrosine Kinase/RTK; Stem Cell/Wnt

>  <Synonyms>


>  <Formula>
C21H18ClFN4O4

>  <Research_Area>
Cancer

>  <Clinical_Information>
No Development Reported

>  <SUPPLIER>
MedChemExpress

$$$$
Untitled Document
  ChemDraw08092213182D

 24 26  0  0  0  0  0  0  0  0999 V2000
    2.8578   -1.0313    0.0000 C   0  0  0  0  0  0  0  0  0  0  0  0
    3.5723   -0.6187    0.0000 C   0  0  0  0  0  0  0  0  0  0  0  0
    2.1433   -0.6187    0.0000 N   0  0  0  0  0  0  0  0  0  0  0  0
    2.1433    0.2062    0.0000 C   0  0  0  0  0  0  0  0  0  0  0  0
    1.4289    0.6187    0.0000 C   0  0  0  0  0  0  0  0  0  0  0  0
    0.7145    0.2062    0.0000 N   0  0  0  0  0  0  0  0  0  0  0  0
    0.7145   -0.6187    0.0000 C   0  0  0  0  0  0  0  0  0  0  0  0
    1.4289   -1.0313    0.0000 C   0  0  0  0  0  0  0  0  0  0  0  0
    2.8578    0.6187    0.0000 C   0  0  0  0  0  0  0  0  0  0  0  0
   -0.0000    1.4437    0.0000 C   0  0  0  0  0  0  0  0  0  0  0  0
   -0.0000    0.6187    0.0000 C   0  0  0  0  0  0  0  0  0  0  0  0
   -0.7145    0.2062    0.0000 C   0  0  0  0  0  0  0  0  0  0  0  0
   -1.4289    0.6187    0.0000 C   0  0  0  0  0  0  0  0  0  0  0  0
   -1.4289    1.4437    0.0000 N   0  0  0  0  0  0  0  0  0  0  0  0
   -0.7145    1.8562    0.0000 N   0  0  0  0  0  0  0  0  0  0  0  0
   -2.1433    0.2062    0.0000 C   0  0  0  0  0  0  0  0  0  0  0  0
   -2.1433   -0.6187    0.0000 C   0  0  0  0  0  0  0  0  0  0  0  0
   -2.8578   -1.0313    0.0000 C   0  0  0  0  0  0  0  0  0  0  0  0
   -3.5723   -0.6187    0.0000 C   0  0  0  0  0  0  0  0  0  0  0  0
   -3.5723    0.2062    0.0000 C   0  0  0  0  0  0  0  0  0  0  0  0
   -2.8578    0.6187    0.0000 C   0  0  0  0  0  0  0  0  0  0  0  0
   -1.4289   -1.0313    0.0000 O   0  0  0  0  0  0  0  0  0  0  0  0
    0.7145    1.8562    0.0000 N   0  0  0  0  0  0  0  0  0  0  0  0
    2.8578   -1.8562    0.0000 O   0  0  0  0  0  0  0  0  0  0  0  0
  1  2  1  0      
  3  4  1  0      
  4  5  1  0      
  5  6  1  0      
  6  7  1  0      
  7  8  1  0      
  3  8  1  0      
  4  9  1  1      
 10 11  1  0      
 11 12  2  0      
 12 13  1  0      
 13 14  2  0      
 14 15  1  0      
 10 15  2  0      
 16 17  1  0      
 17 18  2  0      
 18 19  1  0      
 19 20  2  0      
 20 21  1  0      
 16 21  2  0      
 17 22  1  0      
 13 16  1  0      
 10 23  1  0      
  6 11  1  0      
  1  3  1  0      
  1 24  2  0      
M  END

>  <RackCode>
HYCPK72336

>  <Cat. No.>
HY-149026

>  <Product Name>
GNE-064

>  <ROW>
O

>  <COLUMN>
7

>  <CAS No.>
1997321-20-6

>  <MWt>
327.38

>  <Target>
Epigenetic Reader Domain

>  <Saltdate>


>  <Smiles>
CC(N1[C@H](C)CN(C2=CC(C3=CC=CC=C3O)=NN=C2N)CC1)=O

>  <Solvent>
DMSO Solution

>  <Batch No.>
236029

>  <Quantity>
10mM  * 50uL

>  <Pathway>
Epigenetics

>  <Synonyms>


>  <Formula>
C17H21N5O2

>  <Research_Area>
Others

>  <Clinical_Information>
No Development Reported

>  <SUPPLIER>
MedChemExpress

$$$$
Untitled Document
  ChemDraw09252014402D

 20 22  0  0  0  0  0  0  0  0999 V2000
    1.0717   -0.6187    0.0000 O   0  0  0  0  0  0  0  0  0  0  0  0
    1.0717    1.0312    0.0000 C   0  0  0  0  0  0  0  0  0  0  0  0
    1.7861    0.6187    0.0000 O   0  0  0  0  0  0  0  0  0  0  0  0
    1.0717    1.8561    0.0000 O   0  0  0  0  0  0  0  0  0  0  0  0
    2.5005    1.0312    0.0000 C   0  0  0  0  0  0  0  0  0  0  0  0
    3.2150    0.6187    0.0000 C   0  0  0  0  0  0  0  0  0  0  0  0
   -1.0717   -0.2062    0.0000 C   0  0  0  0  0  0  0  0  0  0  0  0
   -1.7860   -0.6187    0.0000 C   0  0  0  0  0  0  0  0  0  0  0  0
   -0.3572   -0.6187    0.0000 C   0  0  0  0  0  0  0  0  0  0  0  0
   -1.0717    0.6187    0.0000 N   0  0  0  0  0  0  0  0  0  0  0  0
   -1.7860   -1.4437    0.0000 C   0  0  0  0  0  0  0  0  0  0  0  0
   -2.5005   -0.2062    0.0000 N   0  0  0  0  0  0  0  0  0  0  0  0
    0.3572   -0.2062    0.0000 C   0  0  0  0  0  0  0  0  0  0  0  0
   -0.3572   -1.4437    0.0000 C   0  0  0  0  0  0  0  0  0  0  0  0
   -0.3572    1.0312    0.0000 C   0  0  0  0  0  0  0  0  0  0  0  0
   -1.0717   -1.8561    0.0000 C   0  0  0  0  0  0  0  0  0  0  0  0
   -2.5005   -1.8561    0.0000 C   0  0  0  0  0  0  0  0  0  0  0  0
   -3.2150   -0.6187    0.0000 C   0  0  0  0  0  0  0  0  0  0  0  0
    0.3572    0.6187    0.0000 C   0  0  0  0  0  0  0  0  0  0  0  0
   -3.2150   -1.4437    0.0000 C   0  0  0  0  0  0  0  0  0  0  0  0
  1 13  2  0      
  2  3  1  0      
  2  4  2  0      
  2 19  1  0      
  3  5  1  0      
  5  6  1  0      
  7  8  1  0      
  7  9  2  0      
  7 10  1  0      
  8 11  1  0      
  8 12  2  0      
  9 13  1  0      
  9 14  1  0      
 10 15  1  0      
 11 16  1  0      
 11 17  2  0      
 12 18  1  0      
 13 19  1  0      
 14 16  2  0      
 15 19  2  0      
 17 20  1  0      
 18 20  2  0      
M  END

>  <RackCode>
HYCPK72336

>  <Cat. No.>
HY-137239

>  <Product Name>
1,4-DPCA ethyl ester

>  <ROW>
P

>  <COLUMN>
7

>  <CAS No.>
86443-19-8

>  <MWt>
268.27

>  <Target>
HIF/HIF Prolyl-Hydroxylase

>  <Saltdate>
Free Base

>  <Smiles>
O=C1C2=C(NC=C1C(OCC)=O)C3=NC=CC=C3C=C2

>  <Solvent>
DMSO Solution

>  <Batch No.>
85344

>  <Quantity>
10mM  * 50uL

>  <Pathway>
Metabolic Enzyme/Protease

>  <Synonyms>


>  <Formula>
C15H12N2O3

>  <Research_Area>
Cancer

>  <Clinical_Information>
No Development Reported

>  <SUPPLIER>
MedChemExpress

$$$$
Untitled Document
  ChemDraw12111809122D

 18 20  0  0  0  0  0  0  0  0999 V2000
   -1.0717   -0.6188    0.0000 C   0  0  0  0  0  0  0  0  0  0  0  0
   -1.0717   -1.4438    0.0000 C   0  0  0  0  0  0  0  0  0  0  0  0
   -0.3572   -1.8563    0.0000 C   0  0  0  0  0  0  0  0  0  0  0  0
    0.3572   -1.4438    0.0000 C   0  0  0  0  0  0  0  0  0  0  0  0
    0.3572   -0.6188    0.0000 C   0  0  0  0  0  0  0  0  0  0  0  0
    1.0717   -0.2062    0.0000 C   0  0  0  0  0  0  0  0  0  0  0  0
    1.0717    0.6187    0.0000 C   0  0  0  0  0  0  0  0  0  0  0  0
    0.3572    1.0313    0.0000 C   0  0  0  0  0  0  0  0  0  0  0  0
   -0.3572    0.6187    0.0000 N   0  0  0  0  0  0  0  0  0  0  0  0
   -0.3572   -0.2062    0.0000 C   0  0  0  0  0  0  0  0  0  0  0  0
   -1.7862   -1.8563    0.0000 C   0  0  0  0  0  0  0  0  0  0  0  0
   -2.5006   -1.4438    0.0000 C   0  0  0  0  0  0  0  0  0  0  0  0
   -2.5006   -0.6188    0.0000 C   0  0  0  0  0  0  0  0  0  0  0  0
   -1.7862   -0.2062    0.0000 N   0  0  0  0  0  0  0  0  0  0  0  0
    1.7862    1.0313    0.0000 C   0  0  0  0  0  0  0  0  0  0  0  0
    1.7862    1.8563    0.0000 O   0  0  0  0  0  0  0  0  0  0  0  0
    2.5006    0.6187    0.0000 O   0  0  0  0  0  0  0  0  0  0  0  0
    1.7862   -0.6188    0.0000 O   0  0  0  0  0  0  0  0  0  0  0  0
  1  2  1  0      
  2  3  1  0      
  3  4  2  0      
  4  5  1  0      
  5  6  1  0      
  6  7  1  0      
  7  8  2  0      
  8  9  1  0      
  9 10  2  0      
  1 10  1  0      
  5 10  1  0      
 11 12  1  0      
 12 13  2  0      
 13 14  1  0      
  1 14  2  0      
  2 11  2  0      
 15 16  2  0      
 15 17  1  0      
  7 15  1  0      
  6 18  2  0      
M  END

>  <RackCode>
HYCPK72336

>  <Cat. No.>
HY-121172

>  <Product Name>
1,4-DPCA

>  <ROW>
A

>  <COLUMN>
8

>  <CAS No.>
331830-20-7

>  <MWt>
240.21

>  <Target>
HIF/HIF Prolyl-Hydroxylase

>  <Saltdate>


>  <Smiles>
O=C(C1=CN=C2C3=NC=CC=C3C=CC2C1=O)O

>  <Solvent>
DMSO Solution

>  <Batch No.>
85871

>  <Quantity>
10mM  * 50uL

>  <Pathway>
Metabolic Enzyme/Protease

>  <Synonyms>


>  <Formula>
C13H8N2O3

>  <Research_Area>
Cancer

>  <Clinical_Information>
No Development Reported

>  <SUPPLIER>
MedChemExpress

$$$$
Untitled Document
  ChemDraw01111815082D

 27 29  0  0  0  0  0  0  0  0999 V2000
    2.6571   -0.6202    0.0000 N   0  0  0  0  0  0  0  0  0  0  0  0
    3.3691   -1.0312    0.0000 C   0  0  0  0  0  0  0  0  0  0  0  0
    4.0811   -0.6202    0.0000 O   0  0  0  0  0  0  0  0  0  0  0  0
    4.7931   -1.0312    0.0000 C   0  0  0  0  0  0  0  0  0  0  0  0
    3.3691   -1.8534    0.0000 O   0  0  0  0  0  0  0  0  0  0  0  0
    1.9451   -1.0312    0.0000 O   0  0  0  0  0  0  0  0  0  0  0  0
    1.2331   -0.6202    0.0000 C   0  0  0  0  0  0  0  0  0  0  0  0
    2.6571    0.2020    0.0000 C   0  0  0  0  0  0  0  0  0  0  0  0
    1.9421    0.6120    0.0000 C   0  0  0  0  0  0  0  0  0  0  0  0
    1.2301    0.2009    0.0000 C   0  0  0  0  0  0  0  0  0  0  0  0
    0.5181    0.6120    0.0000 O   0  0  0  0  0  0  0  0  0  0  0  0
   -0.1938    0.2009    0.0000 C   0  0  0  0  0  0  0  0  0  0  0  0
   -0.9461    0.5399    0.0000 N   0  0  0  0  0  0  0  0  0  0  0  0
   -1.4956   -0.1079    0.0000 N   0  0  0  0  0  0  0  0  0  0  0  0
   -1.0845   -0.8017    0.0000 C   0  0  0  0  0  0  0  0  0  0  0  0
   -0.2754   -0.6098    0.0000 C   0  0  0  0  0  0  0  0  0  0  0  0
   -2.3177   -0.1079    0.0000 C   0  0  0  0  0  0  0  0  0  0  0  0
   -2.7332    0.6103    0.0000 C   0  0  0  0  0  0  0  0  0  0  0  0
   -3.5564    0.6097    0.0000 C   0  0  0  0  0  0  0  0  0  0  0  0
   -3.9709   -0.1057    0.0000 C   0  0  0  0  0  0  0  0  0  0  0  0
   -3.5555   -0.8239    0.0000 C   0  0  0  0  0  0  0  0  0  0  0  0
   -2.7295   -0.8198    0.0000 C   0  0  0  0  0  0  0  0  0  0  0  0
   -4.7931   -0.1057    0.0000 Cl  0  0  0  0  0  0  0  0  0  0  0  0
    1.9421    1.4417    0.0000 C   0  0  0  0  0  0  0  0  0  0  0  0
    2.6571    1.8534    0.0000 C   0  0  0  0  0  0  0  0  0  0  0  0
    3.3741    1.4417    0.0000 C   0  0  0  0  0  0  0  0  0  0  0  0
    3.3738    0.6124    0.0000 C   0  0  0  0  0  0  0  0  0  0  0  0
  1  2  1  0      
  1  6  1  0      
  1  8  1  0      
  2  3  1  0      
  2  5  2  0      
  3  4  1  0      
  6  7  1  0      
  8  9  2  0      
  8 27  1  0      
  9 10  1  0      
  9 24  1  0      
 10 11  1  0      
 11 12  1  0      
 12 13  2  0      
 12 16  1  0      
 13 14  1  0      
 14 15  1  0      
 14 17  1  0      
 16 15  2  0      
 17 18  2  0      
 17 22  1  0      
 18 19  1  0      
 19 20  2  0      
 21 20  1  0      
 20 23  1  0      
 22 21  2  0      
 24 25  2  0      
 26 25  1  0      
 27 26  2  0      
M  END

>  <RackCode>
HYCPK72336

>  <Cat. No.>
HY-N6626

>  <Product Name>
Pyraclostrobin

>  <ROW>
B

>  <COLUMN>
8

>  <CAS No.>
175013-18-0

>  <MWt>
387.82

>  <Target>
AMPK; Autophagy; Bacterial; Bcl-2 Family; Beclin1; Fungal; mTOR

>  <Saltdate>


>  <Smiles>
COC(N(C1=C(C=CC=C1)COC2=NN(C3=CC=C(Cl)C=C3)C=C2)OC)=O

>  <Solvent>
DMSO Solution

>  <Batch No.>
66861

>  <Quantity>
10mM  * 50uL

>  <Pathway>
Anti-infection; Apoptosis; Autophagy; Epigenetics; PI3K/Akt/mTOR

>  <Synonyms>


>  <Formula>
C19H18ClN3O4

>  <Research_Area>
Infection; Metabolic Disease

>  <Clinical_Information>
No Development Reported

>  <SUPPLIER>
MedChemExpress

$$$$
Untitled Document
  ChemDraw01141715082D

 26 28  0  0  0  0  0  0  0  0999 V2000
   -1.4289    0.0000    0.0000 C   0  0  0  0  0  0  0  0  0  0  0  0
   -1.4289   -0.8250    0.0000 C   0  0  0  0  0  0  0  0  0  0  0  0
   -0.7145   -1.2375    0.0000 C   0  0  0  0  0  0  0  0  0  0  0  0
   -0.0000   -0.8250    0.0000 C   0  0  0  0  0  0  0  0  0  0  0  0
   -0.0000    0.0000    0.0000 C   0  0  0  0  0  0  0  0  0  0  0  0
   -0.7145    0.4125    0.0000 C   0  0  0  0  0  0  0  0  0  0  0  0
   -2.1433   -1.2375    0.0000 C   0  0  0  0  0  0  0  0  0  0  0  0
   -2.1433   -2.0624    0.0000 N   0  0  0  0  0  0  0  0  0  0  0  0
   -2.8578   -2.4749    0.0000 C   0  0  0  0  0  0  0  0  0  0  0  0
   -1.4289   -2.4749    0.0000 C   0  0  0  0  0  0  0  0  0  0  0  0
   -0.7145   -2.0624    0.0000 O   0  0  0  0  0  0  0  0  0  0  0  0
   -0.0000   -2.4749    0.0000 C   0  0  0  0  0  0  0  0  0  0  0  0
    0.7145    0.4125    0.0000 C   0  0  0  0  0  0  0  0  0  0  0  0
    1.4289    0.0000    0.0000 C   0  0  0  0  0  0  0  0  0  0  0  0
    2.1433    0.4125    0.0000 C   0  0  0  0  0  0  0  0  0  0  0  0
    2.1433    1.2375    0.0000 C   0  0  0  0  0  0  0  0  0  0  0  0
    1.4289    1.6500    0.0000 N   0  0  0  0  0  0  0  0  0  0  0  0
    0.7145    1.2375    0.0000 C   0  0  0  0  0  0  0  0  0  0  0  0
    1.4289   -0.8250    0.0000 C   0  0  0  0  0  0  0  0  0  0  0  0
    2.1433   -1.2375    0.0000 C   0  0  0  0  0  0  0  0  0  0  0  0
    2.8578   -0.8250    0.0000 N   0  0  0  0  0  0  0  0  0  0  0  0
    2.8578    0.0000    0.0000 C   0  0  0  0  0  0  0  0  0  0  0  0
    1.4289    2.4749    0.0000 C   0  0  0  0  0  0  0  0  0  0  0  0
    2.8578    1.6500    0.0000 O   0  0  0  0  0  0  0  0  0  0  0  0
   -0.7145    1.2375    0.0000 O   0  0  0  0  0  0  0  0  0  0  0  0
   -0.0000    1.6500    0.0000 C   0  0  0  0  0  0  0  0  0  0  0  0
  1  2  2  0      
  2  3  1  0      
  3  4  2  0      
  4  5  1  0      
  5  6  2  0      
  6  1  1  0      
  2  7  1  0      
  7  8  1  0      
  8  9  1  0      
  8 10  1  0      
  3 11  1  0      
 11 12  1  0      
  5 13  1  0      
 13 14  1  0      
 14 15  2  0      
 15 16  1  0      
 16 17  1  0      
 17 18  1  0      
 18 13  2  0      
 14 19  1  0      
 19 20  2  0      
 20 21  1  0      
 21 22  2  0      
 22 15  1  0      
 17 23  1  0      
 16 24  2  0      
  6 25  1  0      
 25 26  1  0      
M  END

>  <RackCode>
HYCPK72336

>  <Cat. No.>
HY-100352

>  <Product Name>
BI-9564

>  <ROW>
C

>  <COLUMN>
8

>  <CAS No.>
1883429-22-8

>  <MWt>
353.41

>  <Target>
Epigenetic Reader Domain

>  <Saltdate>
Free Base

>  <Smiles>
CN(C)CC1=CC(OC)=C(C(C2=C3C=NC=C2)=CN(C)C3=O)C=C1OC

>  <Solvent>
DMSO Solution

>  <Batch No.>
21963

>  <Quantity>
10mM  * 50uL

>  <Pathway>
Epigenetics

>  <Synonyms>


>  <Formula>
C20H23N3O3

>  <Research_Area>
Cancer

>  <Clinical_Information>
No Development Reported

>  <SUPPLIER>
MedChemExpress

$$$$
Untitled Document
  ChemDraw05101917262D

 26 29  0  0  0  0  0  0  0  0999 V2000
   -4.3794   -1.6500    0.0000 N   0  0  0  0  0  0  0  0  0  0  0  0
   -3.6650   -1.2375    0.0000 C   0  0  0  0  0  0  0  0  0  0  0  0
   -2.9505   -0.8250    0.0000 C   0  0  0  0  0  0  0  0  0  0  0  0
   -2.9505    0.0000    0.0000 C   0  0  0  0  0  0  0  0  0  0  0  0
   -2.2360    0.4125    0.0000 C   0  0  0  0  0  0  0  0  0  0  0  0
   -1.5215    0.0000    0.0000 C   0  0  0  0  0  0  0  0  0  0  0  0
   -0.8071    0.4125    0.0000 C   0  0  0  0  0  0  0  0  0  0  0  0
   -0.8071    1.2375    0.0000 C   0  0  0  0  0  0  0  0  0  0  0  0
   -0.0926    1.6500    0.0000 N   0  0  0  0  0  0  0  0  0  0  0  0
    0.6219    1.2375    0.0000 C   0  0  0  0  0  0  0  0  0  0  0  0
    0.6219    0.4125    0.0000 C   0  0  0  0  0  0  0  0  0  0  0  0
    1.4065    0.1576    0.0000 C   0  0  0  0  0  0  0  0  0  0  0  0
    1.6614   -0.6271    0.0000 N   0  0  0  0  0  0  0  0  0  0  0  0
    2.4684   -0.7986    0.0000 C   0  0  0  0  0  0  0  0  0  0  0  0
    3.0204   -0.1855    0.0000 C   0  0  0  0  0  0  0  0  0  0  0  0
    2.7655    0.5991    0.0000 C   0  0  0  0  0  0  0  0  0  0  0  0
    3.3175    1.2122    0.0000 C   0  0  0  0  0  0  0  0  0  0  0  0
    4.1245    1.0407    0.0000 C   0  0  0  0  0  0  0  0  0  0  0  0
    4.3794    0.2561    0.0000 N   0  0  0  0  0  0  0  0  0  0  0  0
    3.8274   -0.3570    0.0000 C   0  0  0  0  0  0  0  0  0  0  0  0
    2.7233   -1.5832    0.0000 O   0  0  0  0  0  0  0  0  0  0  0  0
    1.8914    0.8250    0.0000 C   0  0  0  0  0  0  0  0  0  0  0  0
    1.4065    1.4924    0.0000 N   0  0  0  0  0  0  0  0  0  0  0  0
   -0.0926    0.0000    0.0000 C   0  0  0  0  0  0  0  0  0  0  0  0
   -1.5215   -0.8250    0.0000 C   0  0  0  0  0  0  0  0  0  0  0  0
   -2.2360   -1.2375    0.0000 C   0  0  0  0  0  0  0  0  0  0  0  0
  1  2  3  0      
  2  3  1  0      
  3  4  2  0      
  4  5  1  0      
  5  6  2  0      
  6  7  1  0      
  7  8  2  0      
  8  9  1  0      
  9 10  2  0      
 10 11  1  0      
 11 12  1  0      
 12 13  1  0      
 13 14  1  0      
 14 15  1  0      
 15 16  2  0      
 16 17  1  0      
 17 18  2  0      
 18 19  1  0      
 19 20  2  0      
 15 20  1  0      
 14 21  2  0      
 12 22  2  0      
 22 23  1  0      
 10 23  1  0      
 11 24  2  0      
  7 24  1  0      
  6 25  1  0      
 25 26  2  0      
  3 26  1  0      
M  END

>  <RackCode>
HYCPK72336

>  <Cat. No.>
HY-10371

>  <Product Name>
Pim1/AKK1-IN-1

>  <ROW>
D

>  <COLUMN>
8

>  <CAS No.>
1093222-27-5

>  <MWt>
339.35

>  <Target>
Pim

>  <Saltdate>
Free Base

>  <Smiles>
N#CC1=CC=C(C2=CN=C3C(C(NC(C4=CC=CN=C4)=O)=CN3)=C2)C=C1

>  <Solvent>
DMSO Solution

>  <Batch No.>
07342

>  <Quantity>
10mM  * 50uL

>  <Pathway>
JAK/STAT Signaling

>  <Synonyms>
LKB1/AAK1 dual inhibitor

>  <Formula>
C20H13N5O

>  <Research_Area>
Cancer

>  <Clinical_Information>
No Development Reported

>  <SUPPLIER>
MedChemExpress

$$$$
Untitled Document
  ChemDraw08311616392D

 33 38  0  0  0  0  0  0  0  0999 V2000
   -1.5700   -0.5474    0.0000 C   0  0  0  0  0  0  0  0  0  0  0  0
   -0.8556   -0.1349    0.0000 C   0  0  0  0  0  0  0  0  0  0  0  0
   -0.1411   -0.5474    0.0000 C   0  0  0  0  0  0  0  0  0  0  0  0
    0.5734   -0.1349    0.0000 C   0  0  0  0  0  0  0  0  0  0  0  0
   -2.2845   -0.1349    0.0000 O   0  0  0  0  0  0  0  0  0  0  0  0
   -0.8556    0.6901    0.0000 S   0  0  0  0  0  0  0  0  0  0  0  0
    2.0725    0.8476    0.0000 N   0  0  0  0  0  0  0  0  0  0  0  0
    1.2879    1.1026    0.0000 C   0  0  0  0  0  0  0  0  0  0  0  0
    1.2879    1.9276    0.0000 C   0  0  0  0  0  0  0  0  0  0  0  0
    2.0725    2.1825    0.0000 C   0  0  0  0  0  0  0  0  0  0  0  0
    2.4080    2.9361    0.0000 C   0  0  0  0  0  0  0  0  0  0  0  0
    3.2284    3.0223    0.0000 C   0  0  0  0  0  0  0  0  0  0  0  0
    3.7133    2.3550    0.0000 C   0  0  0  0  0  0  0  0  0  0  0  0
    3.3778    1.6013    0.0000 C   0  0  0  0  0  0  0  0  0  0  0  0
    2.5574    1.5151    0.0000 C   0  0  0  0  0  0  0  0  0  0  0  0
    0.5734    2.3401    0.0000 N   0  0  0  0  0  0  0  0  0  0  0  0
   -0.1411    1.9276    0.0000 N   0  0  0  0  0  0  0  0  0  0  0  0
   -0.1411    1.1026    0.0000 C   0  0  0  0  0  0  0  0  0  0  0  0
    0.5734    0.6901    0.0000 N   0  0  0  0  0  0  0  0  0  0  0  0
   -0.1411   -1.3724    0.0000 C   0  0  0  0  0  0  0  0  0  0  0  0
    0.5734   -1.7849    0.0000 C   0  0  0  0  0  0  0  0  0  0  0  0
    0.5734   -2.6099    0.0000 C   0  0  0  0  0  0  0  0  0  0  0  0
   -0.1411   -3.0223    0.0000 C   0  0  0  0  0  0  0  0  0  0  0  0
   -0.8556   -2.6099    0.0000 C   0  0  0  0  0  0  0  0  0  0  0  0
   -1.5700   -3.0223    0.0000 S   0  0  0  0  0  0  0  0  0  0  0  0
   -2.2845   -2.6099    0.0000 C   0  0  0  0  0  0  0  0  0  0  0  0
   -2.9989   -3.0223    0.0000 C   0  0  0  0  0  0  0  0  0  0  0  0
   -3.7133   -2.6099    0.0000 C   0  0  0  0  0  0  0  0  0  0  0  0
   -3.7133   -1.7849    0.0000 C   0  0  0  0  0  0  0  0  0  0  0  0
   -2.9989   -1.3724    0.0000 C   0  0  0  0  0  0  0  0  0  0  0  0
   -2.2845   -1.7849    0.0000 C   0  0  0  0  0  0  0  0  0  0  0  0
   -1.5700   -1.3724    0.0000 N   0  0  0  0  0  0  0  0  0  0  0  0
   -0.8556   -1.7849    0.0000 C   0  0  0  0  0  0  0  0  0  0  0  0
  1  2  1  0      
  2  3  1  0      
  3  4  1  0      
  1  5  2  0      
  7  8  1  0      
  8  9  1  0      
  9 10  1  0      
 10 11  1  0      
 11 12  2  0      
 12 13  1  0      
 13 14  2  0      
 14 15  1  0      
  7 15  1  0      
 10 15  2  0      
 16 17  1  0      
 17 18  2  0      
 18 19  1  0      
  8 19  2  0      
  9 16  2  0      
  6 18  1  0      
  2  6  1  0      
 20 21  1  0      
 21 22  2  0      
 22 23  1  0      
 23 24  2  0      
 24 25  1  0      
 25 26  1  0      
 26 27  1  0      
 27 28  2  0      
 28 29  1  0      
 29 30  2  0      
 30 31  1  0      
 26 31  2  0      
 31 32  1  0      
 32 33  1  0      
 24 33  1  0      
 20 33  2  0      
  1 32  1  0      
M  END

>  <RackCode>
HYCPK72336

>  <Cat. No.>
HY-15869

>  <Product Name>
Inauhzin

>  <ROW>
E

>  <COLUMN>
8

>  <CAS No.>
309271-94-1

>  <MWt>
469.58

>  <Target>
MDM-2/p53; Sirtuin

>  <Saltdate>
Free Base

>  <Smiles>
CCC(SC1=NN=C2C(NC3=C2C=CC=C3)=N1)C(N4C5=C(C=CC=C5)SC6=CC=CC=C46)=O

>  <Solvent>
DMSO Solution

>  <Batch No.>
29647

>  <Quantity>
10mM  * 50uL

>  <Pathway>
Apoptosis; Cell Cycle/DNA Damage; Epigenetics

>  <Synonyms>
INZ

>  <Formula>
C25H19N5OS2

>  <Research_Area>
Cancer

>  <Clinical_Information>
No Development Reported

>  <SUPPLIER>
MedChemExpress

$$$$
Untitled Document
  ChemDraw08081716232D

 24 26  0  0  0  0  0  0  0  0999 V2000
   -3.5203    1.5068    0.0000 N   0  0  0  0  0  0  0  0  0  0  0  0
   -2.7162    1.3359    0.0000 C   0  0  0  0  0  0  0  0  0  0  0  0
   -2.6302    0.5183    0.0000 C   0  0  0  0  0  0  0  0  0  0  0  0
   -3.3813    0.1839    0.0000 C   0  0  0  0  0  0  0  0  0  0  0  0
   -3.9314    0.7948    0.0000 N   0  0  0  0  0  0  0  0  0  0  0  0
   -1.9182    0.1072    0.0000 C   0  0  0  0  0  0  0  0  0  0  0  0
   -1.9182   -0.7150    0.0000 O   0  0  0  0  0  0  0  0  0  0  0  0
   -1.2062    0.5183    0.0000 N   0  0  0  0  0  0  0  0  0  0  0  0
   -0.4942    0.1072    0.0000 C   0  0  0  0  0  0  0  0  0  0  0  0
   -0.4648   -0.7173    0.0000 C   0  0  0  0  0  0  0  0  0  0  0  0
    0.2639   -1.1040    0.0000 C   0  0  0  0  0  0  0  0  0  0  0  0
    0.9632   -0.6663    0.0000 C   0  0  0  0  0  0  0  0  0  0  0  0
    0.9632    0.1582    0.0000 C   0  0  0  0  0  0  0  0  0  0  0  0
    0.2639    0.5449    0.0000 C   0  0  0  0  0  0  0  0  0  0  0  0
    1.6752   -1.0774    0.0000 C   0  0  0  0  0  0  0  0  0  0  0  0
    2.0941   -1.7881    0.0000 C   0  0  0  0  0  0  0  0  0  0  0  0
    2.5000   -1.0848    0.0000 C   0  0  0  0  0  0  0  0  0  0  0  0
    3.2120   -0.6737    0.0000 N   0  0  0  0  0  0  0  0  0  0  0  0
    3.2120    0.1484    0.0000 C   0  0  0  0  0  0  0  0  0  0  0  0
    3.9240    0.5595    0.0000 C   0  0  0  0  0  0  0  0  0  0  0  0
    4.7490    0.5595    0.0000 C   0  0  0  0  0  0  0  0  0  0  0  0
    4.3365    1.2739    0.0000 C   0  0  0  0  0  0  0  0  0  0  0  0
   -4.7490    0.7089    0.0000 C   0  0  0  0  0  0  0  0  0  0  0  0
    2.2627    1.7881    0.0000 Cl  0  0  0  0  0  0  0  0  0  0  0  0
  1  2  2  0      
  2  3  1  0      
  3  4  2  0      
  4  5  1  0      
  5  1  1  0      
  5 23  1  0      
  3  6  1  0      
  6  7  2  0      
  6  8  1  0      
  8  9  1  0      
  9 10  2  0      
 10 11  1  0      
 11 12  2  0      
 12 13  1  0      
 13 14  2  0      
 14  9  1  0      
 15 12  1  1      
 15 16  1  0      
 16 17  1  0      
 17 15  1  0      
 17 18  1  6      
 18 19  1  0      
 19 20  1  0      
 20 21  1  0      
 21 22  1  0      
 22 20  1  0      
M  END

>  <RackCode>
HYCPK72336

>  <Cat. No.>
HY-103085

>  <Product Name>
T-3775440 hydrochloride

>  <ROW>
F

>  <COLUMN>
8

>  <CAS No.>
1422535-52-1

>  <MWt>
346.85

>  <Target>
Histone Demethylase

>  <Saltdate>
Hydrochloride

>  <Smiles>
O=C(NC1=CC=C([C@@H]2C[C@H]2NCC3CC3)C=C1)C4=CN(C)N=C4.Cl

>  <Solvent>
DMSO Solution

>  <Batch No.>
34784

>  <Quantity>
10mM  * 50uL

>  <Pathway>
Epigenetics

>  <Synonyms>


>  <Formula>
C18H23ClN4O

>  <Research_Area>
Cancer

>  <Clinical_Information>
No Development Reported

>  <SUPPLIER>
MedChemExpress

$$$$
Untitled Document
  ChemDraw07292215162D

 38 43  0  0  0  0  0  0  0  0999 V2000
   -4.9216    1.6500    0.0000 O   0  0  0  0  0  0  0  0  0  0  0  0
   -4.9216    0.8250    0.0000 C   0  0  0  0  0  0  0  0  0  0  0  0
   -5.6361    0.4125    0.0000 C   0  0  0  0  0  0  0  0  0  0  0  0
   -6.3505    0.8250    0.0000 C   0  0  0  0  0  0  0  0  0  0  0  0
   -4.2071    0.4125    0.0000 N   0  0  0  0  0  0  0  0  0  0  0  0
   -3.4927    0.8250    0.0000 C   0  0  0  0  0  0  0  0  0  0  0  0
   -2.7782    0.4125    0.0000 C   0  0  0  0  0  0  0  0  0  0  0  0
   -2.7782   -0.4125    0.0000 N   0  0  0  0  0  0  0  0  0  0  0  0
   -2.0637   -0.8250    0.0000 C   0  0  0  0  0  0  0  0  0  0  0  0
   -2.0637   -1.6500    0.0000 N   0  0  0  0  0  0  0  0  0  0  0  0
   -1.3492   -2.0625    0.0000 C   0  0  0  0  0  0  0  0  0  0  0  0
   -0.6348   -1.6500    0.0000 C   0  0  0  0  0  0  0  0  0  0  0  0
    0.0797   -2.0625    0.0000 N   0  0  0  0  0  0  0  0  0  0  0  0
    0.7942   -1.6500    0.0000 C   0  0  0  0  0  0  0  0  0  0  0  0
    0.7942   -0.8250    0.0000 N   0  0  0  0  0  0  0  0  0  0  0  0
    0.0797   -0.4125    0.0000 C   0  0  0  0  0  0  0  0  0  0  0  0
    0.0797    0.4125    0.0000 N   0  0  0  0  0  0  0  0  0  0  0  0
    0.7942    0.8250    0.0000 C   0  0  0  0  0  0  0  0  0  0  0  0
    0.7942    1.6500    0.0000 C   0  0  0  0  0  0  0  0  0  0  0  0
    1.5086    2.0625    0.0000 C   0  0  0  0  0  0  0  0  0  0  0  0
    2.2231    1.6500    0.0000 C   0  0  0  0  0  0  0  0  0  0  0  0
    2.9376    2.0625    0.0000 O   0  0  0  0  0  0  0  0  0  0  0  0
    3.6521    1.6500    0.0000 C   0  0  0  0  0  0  0  0  0  0  0  0
    3.6521    0.8250    0.0000 C   0  0  0  0  0  0  0  0  0  0  0  0
    4.3665    0.4125    0.0000 C   0  0  0  0  0  0  0  0  0  0  0  0
    5.0810    0.8250    0.0000 N   0  0  0  0  0  0  0  0  0  0  0  0
    5.8656    0.5701    0.0000 N   0  0  0  0  0  0  0  0  0  0  0  0
    6.3505    1.2375    0.0000 C   0  0  0  0  0  0  0  0  0  0  0  0
    5.8656    1.9049    0.0000 N   0  0  0  0  0  0  0  0  0  0  0  0
    5.0810    1.6500    0.0000 C   0  0  0  0  0  0  0  0  0  0  0  0
    4.3665    2.0625    0.0000 C   0  0  0  0  0  0  0  0  0  0  0  0
    2.2231    0.8250    0.0000 C   0  0  0  0  0  0  0  0  0  0  0  0
    1.5086    0.4125    0.0000 C   0  0  0  0  0  0  0  0  0  0  0  0
    2.9376    0.4125    0.0000 C   0  0  0  0  0  0  0  0  0  0  0  0
   -0.6348   -0.8250    0.0000 C   0  0  0  0  0  0  0  0  0  0  0  0
   -1.3492   -0.4125    0.0000 N   0  0  0  0  0  0  0  0  0  0  0  0
   -3.4927   -0.8250    0.0000 C   0  0  0  0  0  0  0  0  0  0  0  0
   -4.2071   -0.4125    0.0000 C   0  0  0  0  0  0  0  0  0  0  0  0
  1  2  2  0      
  2  3  1  0      
  3  4  2  0      
  2  5  1  0      
  5  6  1  0      
  6  7  1  0      
  7  8  1  0      
  8  9  1  0      
  9 10  1  0      
 10 11  2  0      
 11 12  1  0      
 12 13  2  0      
 13 14  1  0      
 14 15  2  0      
 15 16  1  0      
 16 17  1  0      
 17 18  1  0      
 18 19  2  0      
 19 20  1  0      
 20 21  2  0      
 21 22  1  0      
 22 23  1  0      
 23 24  1  0      
 24 25  2  0      
 25 26  1  0      
 26 27  1  0      
 27 28  2  0      
 28 29  1  0      
 29 30  2  0      
 26 30  1  0      
 30 31  1  0      
 23 31  2  0      
 21 32  1  0      
 32 33  2  0      
 18 33  1  0      
 32 34  1  0      
 16 35  2  0      
 12 35  1  0      
 35 36  1  0      
  9 36  2  0      
  8 37  1  0      
 37 38  1  0      
  5 38  1  0      
M  END

>  <RackCode>
HYCPK72336

>  <Cat. No.>
HY-150023

>  <Product Name>
BI-1622

>  <ROW>
G

>  <COLUMN>
8

>  <CAS No.>
2681392-19-6

>  <MWt>
508.53

>  <Target>
Btk; CDK; EGFR; Itk; JAK; PI4K; Raf

>  <Saltdate>


>  <Smiles>
O=C(N1CCN(CC1)C2=NC3=C(NC4=CC=C(C(C)=C4)OC5=CC6=NC=NN6C=C5)N=CN=C3C=N2)C=C

>  <Solvent>
DMSO Solution

>  <Batch No.>
241345

>  <Quantity>
10mM  * 50uL

>  <Pathway>
Cell Cycle/DNA Damage; Epigenetics; JAK/STAT Signaling; MAPK/ERK Pathway; PI3K/Akt/mTOR; Protein Tyrosine Kinase/RTK; Stem Cell/Wnt

>  <Synonyms>


>  <Formula>
C26H24N10O2

>  <Research_Area>
Cancer

>  <Clinical_Information>
No Development Reported

>  <SUPPLIER>
MedChemExpress

$$$$
Untitled Document
  ChemDraw06211613272D

 24 27  0  0  0  0  0  0  0  0999 V2000
   -1.7246    0.5352    0.0000 C   0  0  0  0  0  0  0  0  0  0  0  0
   -1.7246   -0.2898    0.0000 C   0  0  0  0  0  0  0  0  0  0  0  0
   -1.0101   -0.7023    0.0000 C   0  0  0  0  0  0  0  0  0  0  0  0
   -0.2956   -0.2898    0.0000 C   0  0  0  0  0  0  0  0  0  0  0  0
   -0.2956    0.5352    0.0000 C   0  0  0  0  0  0  0  0  0  0  0  0
   -1.0101    0.9477    0.0000 C   0  0  0  0  0  0  0  0  0  0  0  0
    0.4189   -0.7023    0.0000 C   0  0  0  0  0  0  0  0  0  0  0  0
    1.1333   -0.2898    0.0000 N   0  0  0  0  0  0  0  0  0  0  0  0
    1.1333    0.5352    0.0000 N   0  0  0  0  0  0  0  0  0  0  0  0
    0.4189    0.9477    0.0000 C   0  0  0  0  0  0  0  0  0  0  0  0
    0.4189    1.7727    0.0000 N   0  0  0  0  0  0  0  0  0  0  0  0
    1.1333    2.1852    0.0000 C   0  0  0  0  0  0  0  0  0  0  0  0
    1.8870    1.8497    0.0000 C   0  0  0  0  0  0  0  0  0  0  0  0
    2.4390    2.4628    0.0000 C   0  0  0  0  0  0  0  0  0  0  0  0
    2.0265    3.1773    0.0000 C   0  0  0  0  0  0  0  0  0  0  0  0
    1.2196    3.0057    0.0000 C   0  0  0  0  0  0  0  0  0  0  0  0
   -2.4390    0.9477    0.0000 Cl  0  0  0  0  0  0  0  0  0  0  0  0
   -2.4390   -0.7023    0.0000 Cl  0  0  0  0  0  0  0  0  0  0  0  0
    0.4189   -1.5273    0.0000 C   0  0  0  0  0  0  0  0  0  0  0  0
   -0.2956   -1.9398    0.0000 C   0  0  0  0  0  0  0  0  0  0  0  0
   -0.2956   -2.7648    0.0000 C   0  0  0  0  0  0  0  0  0  0  0  0
    0.4189   -3.1773    0.0000 N   0  0  0  0  0  0  0  0  0  0  0  0
    1.1333   -2.7648    0.0000 C   0  0  0  0  0  0  0  0  0  0  0  0
    1.1333   -1.9398    0.0000 C   0  0  0  0  0  0  0  0  0  0  0  0
  1  2  2  0      
  2  3  1  0      
  3  4  2  0      
  4  5  1  0      
  5  6  2  0      
  6  1  1  0      
  4  7  1  0      
  7  8  2  0      
  8  9  1  0      
  9 10  2  0      
 10  5  1  0      
 10 11  1  0      
 11 12  1  0      
 12 13  1  0      
 13 14  1  0      
 14 15  1  0      
 15 16  1  0      
 16 12  1  0      
  1 17  1  0      
  2 18  1  0      
  7 19  1  0      
 19 20  2  0      
 20 21  1  0      
 21 22  2  0      
 22 23  1  0      
 23 24  2  0      
 24 19  1  0      
M  END

>  <RackCode>
HYCPK72336

>  <Cat. No.>
HY-100201

>  <Product Name>
A-196

>  <ROW>
H

>  <COLUMN>
8

>  <CAS No.>
1982372-88-2

>  <MWt>
359.25

>  <Target>
Histone Methyltransferase

>  <Saltdate>
Free Base

>  <Smiles>
ClC1=C(Cl)C=C(C(C2=CC=NC=C2)=NN=C3NC4CCCC4)C3=C1

>  <Solvent>
DMSO Solution

>  <Batch No.>
116084

>  <Quantity>
10mM  * 50uL

>  <Pathway>
Epigenetics

>  <Synonyms>


>  <Formula>
C18H16Cl2N4

>  <Research_Area>
Cancer

>  <Clinical_Information>
No Development Reported

>  <SUPPLIER>
MedChemExpress

$$$$
Untitled Document
  ChemDraw11231808402D

 29 31  0  0  0  0  0  0  0  0999 V2000
    3.5107   -1.8563    0.0000 C   0  0  0  0  0  0  0  0  0  0  0  0
    2.7963   -1.4438    0.0000 C   0  0  0  0  0  0  0  0  0  0  0  0
    2.0818   -1.8563    0.0000 C   0  0  0  0  0  0  0  0  0  0  0  0
    1.3673   -1.4438    0.0000 C   0  0  0  0  0  0  0  0  0  0  0  0
    1.3673   -0.6187    0.0000 C   0  0  0  0  0  0  0  0  0  0  0  0
    2.0818   -0.2062    0.0000 C   0  0  0  0  0  0  0  0  0  0  0  0
    2.7963   -0.6187    0.0000 C   0  0  0  0  0  0  0  0  0  0  0  0
    4.2252   -2.2688    0.0000 N   0  0  0  0  0  0  0  0  0  0  0  0
    0.6529    0.6187    0.0000 C   0  0  0  0  0  0  0  0  0  0  0  0
    0.6529   -0.2062    0.0000 C   0  0  0  0  0  0  0  0  0  0  0  0
   -0.0616   -0.6187    0.0000 C   0  0  0  0  0  0  0  0  0  0  0  0
   -0.7761   -0.2062    0.0000 C   0  0  0  0  0  0  0  0  0  0  0  0
   -0.7761    0.6187    0.0000 C   0  0  0  0  0  0  0  0  0  0  0  0
   -0.0616    1.0313    0.0000 N   0  0  0  0  0  0  0  0  0  0  0  0
   -1.4906   -0.6187    0.0000 O   0  0  0  0  0  0  0  0  0  0  0  0
   -2.2050   -0.2062    0.0000 C   0  0  0  0  0  0  0  0  0  0  0  0
   -4.2252   -0.8963    0.0000 N   0  0  0  0  0  0  0  0  0  0  0  0
   -3.6732   -0.2832    0.0000 C   0  0  0  0  0  0  0  0  0  0  0  0
   -2.9195   -0.6187    0.0000 C   0  0  0  0  0  0  0  0  0  0  0  0
   -3.0057   -1.4392    0.0000 C   0  0  0  0  0  0  0  0  0  0  0  0
   -3.8127   -1.6108    0.0000 C   0  0  0  0  0  0  0  0  0  0  0  0
    1.3673    1.0313    0.0000 C   0  0  0  0  0  0  0  0  0  0  0  0
    1.3673    1.8563    0.0000 C   0  0  0  0  0  0  0  0  0  0  0  0
    2.0818    2.2688    0.0000 C   0  0  0  0  0  0  0  0  0  0  0  0
    2.7963    1.8563    0.0000 C   0  0  0  0  0  0  0  0  0  0  0  0
    2.7963    1.0313    0.0000 C   0  0  0  0  0  0  0  0  0  0  0  0
    2.0818    0.6187    0.0000 C   0  0  0  0  0  0  0  0  0  0  0  0
    3.5107    2.2688    0.0000 C   0  0  0  0  0  0  0  0  0  0  0  0
   -0.2223   -2.2581    0.0000 Cl  0  0  0  0  0  0  0  0  0  0  0  0
  1  2  1  0      
  2  3  1  0      
  3  4  2  0      
  4  5  1  0      
  5  6  2  0      
  6  7  1  0      
  2  7  2  0      
  1  8  3  0      
  9 10  1  0      
 10 11  2  0      
 11 12  1  0      
 12 13  2  0      
 13 14  1  0      
  9 14  2  0      
 15 16  1  0      
 17 18  1  0      
 18 19  1  0      
 19 20  1  0      
 20 21  1  0      
 17 21  1  0      
 19 16  1  6      
 12 15  1  0      
 22 23  1  0      
 23 24  2  0      
 24 25  1  0      
 25 26  2  0      
 26 27  1  0      
 22 27  2  0      
 25 28  1  0      
  9 22  1  0      
  5 10  1  0      
M  END

>  <RackCode>
HYCPK72336

>  <Cat. No.>
HY-117226A

>  <Product Name>
GSK 690 (Hydrochloride)

>  <ROW>
I

>  <COLUMN>
8

>  <CAS No.>
2436760-79-9

>  <MWt>
405.92

>  <Target>
Histone Demethylase

>  <Saltdate>
Hydrochloride

>  <Smiles>
N#CC1=CC=C(C2=CC(OC[C@H]3CNCC3)=CN=C2C4=CC=C(C)C=C4)C=C1.Cl

>  <Solvent>
DMSO Solution

>  <Batch No.>
37210

>  <Quantity>
10mM  * 50uL

>  <Pathway>
Epigenetics

>  <Synonyms>


>  <Formula>
C24H24ClN3O

>  <Research_Area>
Others

>  <Clinical_Information>
No Development Reported

>  <SUPPLIER>
MedChemExpress

$$$$
Untitled Document
  ChemDraw03252408572D

 67 73  0  0  0  0  0  0  0  0999 V2000
    7.4286   -0.5100    0.0000 O   0  0  0  0  0  0  0  0  0  0  0  0
    8.4836    0.9421    0.0000 C   0  0  0  0  0  0  0  0  0  0  0  0
    9.0356    1.5552    0.0000 C   0  0  0  0  0  0  0  0  0  0  0  0
    8.7806    2.3398    0.0000 N   0  0  0  0  0  0  0  0  0  0  0  0
    9.8426    1.3837    0.0000 O   0  0  0  0  0  0  0  0  0  0  0  0
    7.9737    2.5113    0.0000 C   0  0  0  0  0  0  0  0  0  0  0  0
    9.3327    2.9529    0.0000 C   0  0  0  0  0  0  0  0  0  0  0  0
    9.0777    3.7375    0.0000 C   0  0  0  0  0  0  0  0  0  0  0  0
   10.1396    2.7813    0.0000 C   0  0  0  0  0  0  0  0  0  0  0  0
    8.8642    4.5344    0.0000 F   0  0  0  0  0  0  0  0  0  0  0  0
    8.2809    3.9510    0.0000 F   0  0  0  0  0  0  0  0  0  0  0  0
    9.6611    4.3209    0.0000 F   0  0  0  0  0  0  0  0  0  0  0  0
   10.1906    0.3875    0.0000 O   0  0  0  0  0  0  0  0  0  0  0  0
    5.8105   -2.6699    0.0000 N   0  0  0  0  0  0  0  0  0  0  0  0
    5.0960   -2.2574    0.0000 C   0  0  0  0  0  0  0  0  0  0  0  0
    4.3815   -2.6699    0.0000 C   0  0  0  0  0  0  0  0  0  0  0  0
    5.0960   -1.4324    0.0000 O   0  0  0  0  0  0  0  0  0  0  0  0
    3.6670   -2.2574    0.0000 C   0  0  0  0  0  0  0  0  0  0  0  0
    2.9526   -2.6699    0.0000 C   0  0  0  0  0  0  0  0  0  0  0  0
    2.2381   -2.2574    0.0000 C   0  0  0  0  0  0  0  0  0  0  0  0
    1.5237   -2.6699    0.0000 C   0  0  0  0  0  0  0  0  0  0  0  0
    0.8092   -2.2574    0.0000 C   0  0  0  0  0  0  0  0  0  0  0  0
    0.0947   -2.6699    0.0000 C   0  0  0  0  0  0  0  0  0  0  0  0
   -0.6197   -2.2574    0.0000 C   0  0  0  0  0  0  0  0  0  0  0  0
   -1.3342   -2.6699    0.0000 C   0  0  0  0  0  0  0  0  0  0  0  0
   -2.0487   -2.2574    0.0000 C   0  0  0  0  0  0  0  0  0  0  0  0
   -2.7632   -2.6699    0.0000 C   0  0  0  0  0  0  0  0  0  0  0  0
   -3.4776   -2.2574    0.0000 N   0  0  0  0  0  0  0  0  0  0  0  0
    5.7655    0.0590    0.0000 F   0  0  0  0  0  0  0  0  0  0  0  0
   -6.6606   -1.6303    0.0000 O   0  0  0  0  0  0  0  0  0  0  0  0
   -6.6606   -4.5344    0.0000 O   0  0  0  0  0  0  0  0  0  0  0  0
   -7.7156   -4.5113    0.0000 O   0  0  0  0  0  0  0  0  0  0  0  0
  -10.1906   -3.0824    0.0000 O   0  0  0  0  0  0  0  0  0  0  0  0
    8.7385   -1.1774    0.0000 C   0  0  0  0  0  0  0  0  0  0  0  0
    7.9539   -1.4324    0.0000 C   0  0  0  0  0  0  0  0  0  0  0  0
    8.2536   -0.5100    0.0000 C   0  0  0  0  0  0  0  0  0  0  0  0
    9.2234   -1.8449    0.0000 C   0  0  0  0  0  0  0  0  0  0  0  0
    9.5231   -0.9225    0.0000 O   0  0  0  0  0  0  0  0  0  0  0  0
    7.9539   -2.2574    0.0000 C   0  0  0  0  0  0  0  0  0  0  0  0
    7.2394   -1.0199    0.0000 C   0  0  0  0  0  0  0  0  0  0  0  0
    8.7385    0.1575    0.0000 N   0  0  0  0  0  0  0  0  0  0  0  0
    8.7385   -2.5123    0.0000 C   0  0  0  0  0  0  0  0  0  0  0  0
    9.5231   -0.0975    0.0000 C   0  0  0  0  0  0  0  0  0  0  0  0
    7.2394   -2.6699    0.0000 C   0  0  0  0  0  0  0  0  0  0  0  0
    6.5250   -1.4324    0.0000 C   0  0  0  0  0  0  0  0  0  0  0  0
    6.5250   -2.2574    0.0000 C   0  0  0  0  0  0  0  0  0  0  0  0
    7.4216    1.8982    0.0000 C   0  0  0  0  0  0  0  0  0  0  0  0
    6.6147    2.0698    0.0000 C   0  0  0  0  0  0  0  0  0  0  0  0
    7.6766    1.1136    0.0000 C   0  0  0  0  0  0  0  0  0  0  0  0
    6.0626    1.4567    0.0000 C   0  0  0  0  0  0  0  0  0  0  0  0
    7.1246    0.5005    0.0000 C   0  0  0  0  0  0  0  0  0  0  0  0
    6.3176    0.6720    0.0000 C   0  0  0  0  0  0  0  0  0  0  0  0
   -4.1921   -2.6699    0.0000 C   0  0  0  0  0  0  0  0  0  0  0  0
   -4.9066   -2.2574    0.0000 C   0  0  0  0  0  0  0  0  0  0  0  0
   -4.1921   -3.4949    0.0000 C   0  0  0  0  0  0  0  0  0  0  0  0
   -5.6211   -2.6699    0.0000 C   0  0  0  0  0  0  0  0  0  0  0  0
   -4.9066   -3.9074    0.0000 C   0  0  0  0  0  0  0  0  0  0  0  0
   -5.6211   -3.4949    0.0000 C   0  0  0  0  0  0  0  0  0  0  0  0
   -6.4057   -2.4149    0.0000 C   0  0  0  0  0  0  0  0  0  0  0  0
   -6.4057   -3.7498    0.0000 C   0  0  0  0  0  0  0  0  0  0  0  0
   -6.8906   -3.0824    0.0000 N   0  0  0  0  0  0  0  0  0  0  0  0
   -7.7156   -3.0824    0.0000 C   0  0  0  0  0  0  0  0  0  0  0  0
   -8.1281   -3.7968    0.0000 C   0  0  0  0  0  0  0  0  0  0  0  0
   -8.1281   -2.3679    0.0000 C   0  0  0  0  0  0  0  0  0  0  0  0
   -8.9531   -3.7968    0.0000 N   0  0  0  0  0  0  0  0  0  0  0  0
   -8.9531   -2.3679    0.0000 C   0  0  0  0  0  0  0  0  0  0  0  0
   -9.3656   -3.0824    0.0000 C   0  0  0  0  0  0  0  0  0  0  0  0
  1 36  2  0      
  2  3  1  0      
  2 41  1  0      
  3  4  1  0      
  3  5  2  0      
  4  6  1  0      
  4  7  1  0      
  6 47  1  0      
  7  8  1  0      
  7  9  1  6      
  8 10  1  0      
  8 11  1  0      
  8 12  1  0      
 13 43  2  0      
 14 15  1  0      
 14 46  1  0      
 15 16  1  0      
 15 17  2  0      
 16 18  1  0      
 18 19  1  0      
 19 20  1  0      
 20 21  1  0      
 21 22  1  0      
 22 23  1  0      
 23 24  1  0      
 24 25  1  0      
 25 26  1  0      
 26 27  1  0      
 27 28  1  0      
 28 53  1  0      
 29 52  1  0      
 30 59  2  0      
 31 60  2  0      
 32 63  2  0      
 33 67  2  0      
 34 35  1  0      
 34 36  1  1      
 34 37  1  0      
 34 38  1  6      
 35 39  1  0      
 35 40  2  0      
 36 41  1  0      
 37 42  1  0      
 38 43  1  0      
 39 42  1  0      
 39 44  2  0      
 40 45  1  0      
 41 43  1  0      
 44 46  1  0      
 45 46  2  0      
 47 48  2  0      
 47 49  1  0      
 48 50  1  0      
 49 51  2  0      
 50 52  2  0      
 51 52  1  0      
 53 54  1  0      
 53 55  2  0      
 54 56  2  0      
 55 57  1  0      
 56 58  1  0      
 56 59  1  0      
 57 58  2  0      
 58 60  1  0      
 59 61  1  0      
 60 61  1  0      
 61 62  1  0      
 62 63  1  0      
 62 64  1  0      
 63 65  1  0      
 64 66  1  0      
 65 67  1  0      
 66 67  1  0      
M  END

>  <RackCode>
HYCPK72336

>  <Cat. No.>
HY-145765

>  <Product Name>
JQAD1

>  <ROW>
J

>  <COLUMN>
8

>  <CAS No.>
2417097-18-6

>  <MWt>
932.95

>  <Target>
Apoptosis; Caspase; Histone Acetyltransferase; PARP; PROTACs

>  <Saltdate>


>  <Smiles>
O=C(N1CC(N([C@@H](C)C(F)(F)F)CC(C=C2)=CC=C2F)=O)[C@](CCC3=C4)(OC1=O)C3=CC=C4NC(CCCCCCCCCCCNC5=CC=C(C6=O)C(C(N6C(CCC7=O)C(N7)=O)=O)=C5)=O

>  <Solvent>
DMSO Solution

>  <Batch No.>
245563

>  <Quantity>
10mM  * 50uL

>  <Pathway>
Apoptosis; Cell Cycle/DNA Damage; Epigenetics; PROTAC

>  <Synonyms>


>  <Formula>
C48H52F4N6O9

>  <Research_Area>
Cancer

>  <Clinical_Information>
No Development Reported

>  <SUPPLIER>
MedChemExpress

$$$$
Untitled Document
  ChemDraw03042414452D

 20 21  0  0  0  0  0  0  0  0999 V2000
   -3.5723   -0.6187    0.0000 C   0  0  0  0  0  0  0  0  0  0  0  0
   -3.5723   -1.4437    0.0000 C   0  0  0  0  0  0  0  0  0  0  0  0
   -2.8578   -1.8562    0.0000 C   0  0  0  0  0  0  0  0  0  0  0  0
   -2.1433   -1.4437    0.0000 C   0  0  0  0  0  0  0  0  0  0  0  0
   -2.1433   -0.6187    0.0000 C   0  0  0  0  0  0  0  0  0  0  0  0
   -2.8578   -0.2062    0.0000 N   0  0  0  0  0  0  0  0  0  0  0  0
   -1.4289   -0.2062    0.0000 C   0  0  0  0  0  0  0  0  0  0  0  0
   -0.7145   -0.6187    0.0000 N   0  0  0  0  0  0  0  0  0  0  0  0
   -1.4289    0.6187    0.0000 O   0  0  0  0  0  0  0  0  0  0  0  0
   -0.0000   -0.2062    0.0000 N   0  0  0  0  0  0  0  0  0  0  0  0
    0.7145   -0.6187    0.0000 C   0  0  0  0  0  0  0  0  0  0  0  0
    1.4289   -0.2062    0.0000 C   0  0  0  0  0  0  0  0  0  0  0  0
    0.7145   -1.4437    0.0000 O   0  0  0  0  0  0  0  0  0  0  0  0
    2.1433   -0.6187    0.0000 C   0  0  0  0  0  0  0  0  0  0  0  0
    2.8578   -0.2062    0.0000 C   0  0  0  0  0  0  0  0  0  0  0  0
    2.8578    0.6187    0.0000 C   0  0  0  0  0  0  0  0  0  0  0  0
    2.1433    1.0313    0.0000 C   0  0  0  0  0  0  0  0  0  0  0  0
    1.4289    0.6187    0.0000 C   0  0  0  0  0  0  0  0  0  0  0  0
    3.5723   -0.6187    0.0000 C   0  0  0  0  0  0  0  0  0  0  0  0
    2.1433    1.8562    0.0000 C   0  0  0  0  0  0  0  0  0  0  0  0
  1  2  2  0      
  2  3  1  0      
  3  4  2  0      
  4  5  1  0      
  5  6  2  0      
  6  1  1  0      
  5  7  1  0      
  7  8  1  0      
  7  9  2  0      
  8 10  1  0      
 10 11  1  0      
 11 12  1  0      
 11 13  2  0      
 12 14  1  0      
 14 15  2  0      
 15 16  1  0      
 16 17  2  0      
 17 18  1  0      
 18 12  2  0      
 15 19  1  0      
 17 20  1  0      
M  END

>  <RackCode>
HYCPK72336

>  <Cat. No.>
HY-162301

>  <Product Name>
P3FI-63

>  <ROW>
K

>  <COLUMN>
8

>  <CAS No.>
931596-95-1

>  <MWt>
269.30

>  <Target>
Histone Demethylase

>  <Saltdate>


>  <Smiles>
O=C(NNC(C1=CC(C)=CC(C)=C1)=O)C2=NC=CC=C2

>  <Solvent>
DMSO Solution

>  <Batch No.>
414143

>  <Quantity>
10mM  * 50uL

>  <Pathway>
Epigenetics

>  <Synonyms>


>  <Formula>
C15H15N3O2

>  <Research_Area>
Cancer

>  <Clinical_Information>
No Development Reported

>  <SUPPLIER>
MedChemExpress

$$$$
Untitled Document
  ChemDraw09081616462D

 34 36  0  0  0  0  0  0  0  0999 V2000
   -2.0454   -2.2673    0.0000 C   0  0  0  0  0  0  0  0  0  0  0  0
   -2.3276   -3.0426    0.0000 C   0  0  0  0  0  0  0  0  0  0  0  0
   -3.1401   -3.1859    0.0000 C   0  0  0  0  0  0  0  0  0  0  0  0
   -3.6704   -2.5539    0.0000 C   0  0  0  0  0  0  0  0  0  0  0  0
   -3.3882   -1.7786    0.0000 C   0  0  0  0  0  0  0  0  0  0  0  0
   -2.5757   -1.6354    0.0000 C   0  0  0  0  0  0  0  0  0  0  0  0
   -1.3309   -2.6798    0.0000 C   0  0  0  0  0  0  0  0  0  0  0  0
   -0.6165   -2.2673    0.0000 C   0  0  0  0  0  0  0  0  0  0  0  0
    0.0980   -2.6798    0.0000 C   0  0  0  0  0  0  0  0  0  0  0  0
   -1.3309   -3.5048    0.0000 O   0  0  0  0  0  0  0  0  0  0  0  0
    0.8125   -2.2673    0.0000 C   0  0  0  0  0  0  0  0  0  0  0  0
    1.5269   -2.6798    0.0000 C   0  0  0  0  0  0  0  0  0  0  0  0
    2.2414   -2.2673    0.0000 C   0  0  0  0  0  0  0  0  0  0  0  0
    2.2414   -1.4423    0.0000 C   0  0  0  0  0  0  0  0  0  0  0  0
    1.5269   -1.0298    0.0000 C   0  0  0  0  0  0  0  0  0  0  0  0
    0.8125   -1.4423    0.0000 C   0  0  0  0  0  0  0  0  0  0  0  0
    2.9559   -1.0298    0.0000 O   0  0  0  0  0  0  0  0  0  0  0  0
    3.6704   -1.4423    0.0000 C   0  0  0  0  0  0  0  0  0  0  0  0
    2.9559   -2.6798    0.0000 O   0  0  0  0  0  0  0  0  0  0  0  0
    3.6704   -2.2673    0.0000 C   0  0  0  0  0  0  0  0  0  0  0  0
   -1.5151   -1.6354    0.0000 C   0  0  0  0  0  0  0  0  0  0  0  0
   -1.7973   -0.8601    0.0000 C   0  0  0  0  0  0  0  0  0  0  0  0
   -1.2670   -0.2281    0.0000 C   0  0  0  0  0  0  0  0  0  0  0  0
   -0.7027   -1.7786    0.0000 O   0  0  0  0  0  0  0  0  0  0  0  0
   -1.5492    0.5471    0.0000 C   0  0  0  0  0  0  0  0  0  0  0  0
   -1.0189    1.1791    0.0000 C   0  0  0  0  0  0  0  0  0  0  0  0
   -1.3010    1.9544    0.0000 C   0  0  0  0  0  0  0  0  0  0  0  0
   -2.1135    2.0976    0.0000 C   0  0  0  0  0  0  0  0  0  0  0  0
   -2.6438    1.4656    0.0000 C   0  0  0  0  0  0  0  0  0  0  0  0
   -2.3616    0.6904    0.0000 C   0  0  0  0  0  0  0  0  0  0  0  0
   -2.3957    2.8729    0.0000 O   0  0  0  0  0  0  0  0  0  0  0  0
   -1.8654    3.5048    0.0000 C   0  0  0  0  0  0  0  0  0  0  0  0
   -0.7707    2.5863    0.0000 O   0  0  0  0  0  0  0  0  0  0  0  0
   -1.0529    3.3616    0.0000 C   0  0  0  0  0  0  0  0  0  0  0  0
  1  2  1  0      
  2  3  1  0      
  3  4  1  0      
  4  5  1  0      
  5  6  1  0      
  1  6  1  0      
  7  8  1  0      
  8  9  2  0      
  7 10  2  0      
 11 12  1  0      
 12 13  2  0      
 13 14  1  0      
 14 15  2  0      
 15 16  1  0      
 11 16  2  0      
 17 18  1  0      
 14 17  1  0      
 19 20  1  0      
 13 19  1  0      
  9 11  1  0      
  1  7  1  0      
 21 22  1  0      
 22 23  2  0      
 21 24  2  0      
 25 26  1  0      
 26 27  2  0      
 27 28  1  0      
 28 29  2  0      
 29 30  1  0      
 25 30  2  0      
 31 32  1  0      
 28 31  1  0      
 33 34  1  0      
 27 33  1  0      
 23 25  1  0      
  1 21  1  0      
M  END

>  <RackCode>
HYCPK72336

>  <Cat. No.>
HY-100544

>  <Product Name>
FLLL32

>  <ROW>
L

>  <COLUMN>
8

>  <CAS No.>
1226895-15-3

>  <MWt>
464.55

>  <Target>
Apoptosis; JAK; STAT

>  <Saltdate>
Free Base

>  <Smiles>
O=C(C1(C(/C=C/C2=CC=C(OC)C(OC)=C2)=O)CCCCC1)/C=C/C3=CC=C(OC)C(OC)=C3

>  <Solvent>
DMSO Solution

>  <Batch No.>
104491

>  <Quantity>
10mM  * 50uL

>  <Pathway>
Apoptosis; Epigenetics; JAK/STAT Signaling; Protein Tyrosine Kinase/RTK; Stem Cell/Wnt

>  <Synonyms>


>  <Formula>
C28H32O6

>  <Research_Area>
Cancer

>  <Clinical_Information>
No Development Reported

>  <SUPPLIER>
MedChemExpress

$$$$
Untitled Document
  ChemDraw06271314352D

 32 36  0  0  0  0  0  0  0  0999 V2000
   -0.7145    0.4125    0.0000 C   0  0  0  0  0  0  0  0  0  0  0  0
   -0.7145   -0.4125    0.0000 C   0  0  0  0  0  0  0  0  0  0  0  0
   -0.0000   -0.8250    0.0000 C   0  0  0  0  0  0  0  0  0  0  0  0
    0.7145   -0.4125    0.0000 C   0  0  0  0  0  0  0  0  0  0  0  0
    0.7145    0.4125    0.0000 C   0  0  0  0  0  0  0  0  0  0  0  0
   -0.0000    0.8250    0.0000 C   0  0  0  0  0  0  0  0  0  0  0  0
    1.4265    0.8236    0.0000 C   0  0  0  0  0  0  0  0  0  0  0  0
    2.1386    0.4125    0.0000 N   0  0  0  0  0  0  0  0  0  0  0  0
    1.4265    1.6458    0.0000 O   0  0  0  0  0  0  0  0  0  0  0  0
   -1.4265   -0.8236    0.0000 C   0  0  0  0  0  0  0  0  0  0  0  0
   -2.1386   -0.4125    0.0000 N   0  0  0  0  0  0  0  0  0  0  0  0
   -1.4265   -1.6458    0.0000 O   0  0  0  0  0  0  0  0  0  0  0  0
    2.1386   -0.4125    0.0000 C   0  0  0  0  0  0  0  0  0  0  0  0
    2.8531   -0.8250    0.0000 C   0  0  0  0  0  0  0  0  0  0  0  0
    3.5675   -0.4125    0.0000 C   0  0  0  0  0  0  0  0  0  0  0  0
    3.5675    0.4125    0.0000 C   0  0  0  0  0  0  0  0  0  0  0  0
    2.8531    0.8250    0.0000 C   0  0  0  0  0  0  0  0  0  0  0  0
   -2.1386    0.4125    0.0000 C   0  0  0  0  0  0  0  0  0  0  0  0
   -2.8531    0.8250    0.0000 C   0  0  0  0  0  0  0  0  0  0  0  0
   -3.5675    0.4125    0.0000 C   0  0  0  0  0  0  0  0  0  0  0  0
   -3.5675   -0.4125    0.0000 C   0  0  0  0  0  0  0  0  0  0  0  0
   -2.8531   -0.8250    0.0000 C   0  0  0  0  0  0  0  0  0  0  0  0
    4.2796   -0.8236    0.0000 N   0  0  0  0  0  0  0  0  0  0  0  0
   -4.2796    0.8236    0.0000 N   0  0  0  0  0  0  0  0  0  0  0  0
    4.3659   -1.6441    0.0000 C   0  0  0  0  0  0  0  0  0  0  0  0
    5.1728   -1.8156    0.0000 C   0  0  0  0  0  0  0  0  0  0  0  0
    5.5853   -1.1011    0.0000 C   0  0  0  0  0  0  0  0  0  0  0  0
    5.0333   -0.4881    0.0000 C   0  0  0  0  0  0  0  0  0  0  0  0
   -4.3659    1.6441    0.0000 C   0  0  0  0  0  0  0  0  0  0  0  0
   -5.1728    1.8156    0.0000 C   0  0  0  0  0  0  0  0  0  0  0  0
   -5.5853    1.1011    0.0000 C   0  0  0  0  0  0  0  0  0  0  0  0
   -5.0333    0.4881    0.0000 C   0  0  0  0  0  0  0  0  0  0  0  0
  1  2  2  0      
  2  3  1  0      
  3  4  2  0      
  4  5  1  0      
  5  6  2  0      
  6  1  1  0      
  5  7  1  0      
  7  8  1  0      
  7  9  2  0      
  2 10  1  0      
 10 11  1  0      
 10 12  2  0      
  8 13  1  0      
 13 14  1  0      
 14 15  1  0      
 15 16  1  0      
 16 17  1  0      
 17  8  1  0      
 11 18  1  0      
 18 19  1  0      
 19 20  1  0      
 20 21  1  0      
 21 22  1  0      
 22 11  1  0      
 15 23  1  0      
 20 24  1  0      
 23 25  1  0      
 25 26  1  0      
 26 27  1  0      
 27 28  1  0      
 28 23  1  0      
 24 29  1  0      
 29 30  1  0      
 30 31  1  0      
 31 32  1  0      
 32 24  1  0      
M  END

>  <RackCode>
HYCPK72336

>  <Cat. No.>
HY-18372

>  <Product Name>
UNC1021

>  <ROW>
M

>  <COLUMN>
8

>  <CAS No.>
1322591-19-4

>  <MWt>
438.61

>  <Target>
Epigenetic Reader Domain

>  <Saltdate>


>  <Smiles>
O=C(N1CCC(N2CCCC2)CC1)C3=CC=C(C(N4CCC(N5CCCC5)CC4)=O)C=C3

>  <Solvent>
DMSO Solution

>  <Batch No.>
237851

>  <Quantity>
10mM  * 50uL

>  <Pathway>
Epigenetics

>  <Synonyms>


>  <Formula>
C26H38N4O2

>  <Research_Area>
Cancer

>  <Clinical_Information>
No Development Reported

>  <SUPPLIER>
MedChemExpress

$$$$
Untitled Document
  ChemDraw04152010592D

 25 28  0  0  0  0  0  0  0  0999 V2000
    1.7277    1.7663    0.0000 C   0  0  0  0  0  0  0  0  0  0  0  0
    1.0132    1.3538    0.0000 C   0  0  0  0  0  0  0  0  0  0  0  0
    1.0132    0.5288    0.0000 C   0  0  0  0  0  0  0  0  0  0  0  0
    0.2988    0.1163    0.0000 C   0  0  0  0  0  0  0  0  0  0  0  0
   -0.4157    0.5288    0.0000 C   0  0  0  0  0  0  0  0  0  0  0  0
   -0.4157    1.3538    0.0000 C   0  0  0  0  0  0  0  0  0  0  0  0
    0.2988    1.7663    0.0000 C   0  0  0  0  0  0  0  0  0  0  0  0
    1.7277    2.5913    0.0000 O   0  0  0  0  0  0  0  0  0  0  0  0
    2.4422    1.3538    0.0000 N   0  0  0  0  0  0  0  0  0  0  0  0
   -1.1302    0.1163    0.0000 C   0  0  0  0  0  0  0  0  0  0  0  0
   -1.1302   -0.7087    0.0000 N   0  0  0  0  0  0  0  0  0  0  0  0
   -0.4628   -1.1936    0.0000 C   0  0  0  0  0  0  0  0  0  0  0  0
   -0.7177   -1.9782    0.0000 C   0  0  0  0  0  0  0  0  0  0  0  0
   -1.5427   -1.9782    0.0000 C   0  0  0  0  0  0  0  0  0  0  0  0
   -2.0947   -2.5913    0.0000 C   0  0  0  0  0  0  0  0  0  0  0  0
   -2.9017   -2.4198    0.0000 C   0  0  0  0  0  0  0  0  0  0  0  0
   -3.1566   -1.6352    0.0000 C   0  0  0  0  0  0  0  0  0  0  0  0
   -2.6046   -1.0221    0.0000 C   0  0  0  0  0  0  0  0  0  0  0  0
   -1.7976   -1.1936    0.0000 C   0  0  0  0  0  0  0  0  0  0  0  0
    0.3442   -1.0221    0.0000 C   0  0  0  0  0  0  0  0  0  0  0  0
   -0.1657   -2.5913    0.0000 C   0  0  0  0  0  0  0  0  0  0  0  0
    0.6413   -2.4198    0.0000 C   0  0  0  0  0  0  0  0  0  0  0  0
    0.8963   -1.6352    0.0000 N   0  0  0  0  0  0  0  0  0  0  0  0
    1.7032   -1.4636    0.0000 C   0  0  0  0  0  0  0  0  0  0  0  0
    3.1566    1.7663    0.0000 O   0  0  0  0  0  0  0  0  0  0  0  0
  1  2  1  0      
  2  3  1  0      
  3  4  2  0      
  4  5  1  0      
  5  6  2  0      
  6  7  1  0      
  2  7  2  0      
  1  8  2  0      
  1  9  1  0      
 11 12  1  0      
 12 13  2  0      
 13 14  1  0      
 14 15  1  0      
 15 16  2  0      
 16 17  1  0      
 17 18  2  0      
 18 19  1  0      
 11 19  1  0      
 14 19  2  0      
 21 22  1  0      
 22 23  1  0      
 20 23  1  0      
 20 12  1  0      
 21 13  1  0      
 23 24  1  0      
 10 11  1  0      
  5 10  1  0      
  9 25  1  0      
M  END

>  <RackCode>
HYCPK72336

>  <Cat. No.>
HY-128763

>  <Product Name>
HDAC-IN-4

>  <ROW>
N

>  <COLUMN>
8

>  <CAS No.>
1252003-13-6

>  <MWt>
335.40

>  <Target>
HDAC

>  <Saltdate>


>  <Smiles>
O=C(NO)C1=CC=C(CN2C(CN(C)CC3)=C3C4=C2C=CC=C4)C=C1

>  <Solvent>
DMSO Solution

>  <Batch No.>
158447

>  <Quantity>
10mM  * 50uL

>  <Pathway>
Cell Cycle/DNA Damage; Epigenetics

>  <Synonyms>


>  <Formula>
C20H21N3O2

>  <Research_Area>
Cancer

>  <Clinical_Information>
No Development Reported

>  <SUPPLIER>
MedChemExpress

$$$$
Untitled Document
  ChemDraw11062313142D

 48 52  0  0  0  0  0  0  0  0999 V2000
   -7.1447   -0.4125    0.0000 C   0  0  0  0  0  0  0  0  0  0  0  0
   -6.4302   -0.8250    0.0000 N   0  0  0  0  0  0  0  0  0  0  0  0
   -5.7158   -0.4125    0.0000 C   0  0  0  0  0  0  0  0  0  0  0  0
   -5.7158    0.4125    0.0000 N   0  0  0  0  0  0  0  0  0  0  0  0
   -6.4302    0.8250    0.0000 C   0  0  0  0  0  0  0  0  0  0  0  0
   -7.1447    0.4125    0.0000 N   0  0  0  0  0  0  0  0  0  0  0  0
   -7.8592   -0.8250    0.0000 N   0  0  0  0  0  0  0  0  0  0  0  0
   -6.4302    1.6500    0.0000 O   0  0  0  0  0  0  0  0  0  0  0  0
   -5.7158    2.0625    0.0000 C   0  0  0  0  0  0  0  0  0  0  0  0
   -5.0013   -0.8250    0.0000 C   0  0  0  0  0  0  0  0  0  0  0  0
   -8.5737   -0.4125    0.0000 C   0  0  0  0  0  0  0  0  0  0  0  0
   -9.2881   -0.8250    0.0000 C   0  0  0  0  0  0  0  0  0  0  0  0
   -9.2881   -1.6500    0.0000 O   0  0  0  0  0  0  0  0  0  0  0  0
   -8.5737   -2.0625    0.0000 C   0  0  0  0  0  0  0  0  0  0  0  0
   -7.8592   -1.6500    0.0000 C   0  0  0  0  0  0  0  0  0  0  0  0
   -5.0013   -1.6500    0.0000 C   0  0  0  0  0  0  0  0  0  0  0  0
   -4.2868   -2.0625    0.0000 C   0  0  0  0  0  0  0  0  0  0  0  0
   -3.5724   -1.6500    0.0000 C   0  0  0  0  0  0  0  0  0  0  0  0
   -3.5724   -0.8250    0.0000 C   0  0  0  0  0  0  0  0  0  0  0  0
   -4.2868   -0.4125    0.0000 C   0  0  0  0  0  0  0  0  0  0  0  0
   -2.8579   -2.0625    0.0000 N   0  0  0  0  0  0  0  0  0  0  0  0
   -2.1434   -1.6500    0.0000 C   0  0  0  0  0  0  0  0  0  0  0  0
   -1.4289   -2.0625    0.0000 N   0  0  0  0  0  0  0  0  0  0  0  0
   -2.1434   -0.8250    0.0000 O   0  0  0  0  0  0  0  0  0  0  0  0
   -0.7145   -1.6500    0.0000 C   0  0  0  0  0  0  0  0  0  0  0  0
   -0.0000   -2.0625    0.0000 C   0  0  0  0  0  0  0  0  0  0  0  0
    0.7145   -1.6500    0.0000 C   0  0  0  0  0  0  0  0  0  0  0  0
    0.7145   -0.8250    0.0000 C   0  0  0  0  0  0  0  0  0  0  0  0
   -0.0000   -0.4125    0.0000 C   0  0  0  0  0  0  0  0  0  0  0  0
   -0.7145   -0.8250    0.0000 C   0  0  0  0  0  0  0  0  0  0  0  0
    1.4289   -0.4125    0.0000 C   0  0  0  0  0  0  0  0  0  0  0  0
    2.1434   -0.8250    0.0000 N   0  0  0  0  0  0  0  0  0  0  0  0
    1.4289    0.4125    0.0000 O   0  0  0  0  0  0  0  0  0  0  0  0
    2.8579   -0.4125    0.0000 C   0  0  0  0  0  0  0  0  0  0  0  0
    3.5724   -0.8250    0.0000 C   0  0  0  0  0  0  0  0  0  0  0  0
    4.2868   -0.4125    0.0000 C   0  0  0  0  0  0  0  0  0  0  0  0
    5.0013   -0.8250    0.0000 C   0  0  0  0  0  0  0  0  0  0  0  0
    5.7158   -0.4125    0.0000 C   0  0  0  0  0  0  0  0  0  0  0  0
    6.4302   -0.8250    0.0000 C   0  0  0  0  0  0  0  0  0  0  0  0
    7.1447   -0.4125    0.0000 N   0  0  0  0  0  0  0  0  0  0  0  0
    7.8592   -0.8250    0.0000 C   0  0  0  0  0  0  0  0  0  0  0  0
    6.4302   -1.6500    0.0000 O   0  0  0  0  0  0  0  0  0  0  0  0
    7.8592   -1.6500    0.0000 C   0  0  0  0  0  0  0  0  0  0  0  0
    8.5737   -2.0625    0.0000 C   0  0  0  0  0  0  0  0  0  0  0  0
    9.2881   -1.6500    0.0000 C   0  0  0  0  0  0  0  0  0  0  0  0
    9.2881   -0.8250    0.0000 C   0  0  0  0  0  0  0  0  0  0  0  0
    8.5737   -0.4125    0.0000 C   0  0  0  0  0  0  0  0  0  0  0  0
    8.5737    0.4125    0.0000 N   0  0  0  0  0  0  0  0  0  0  0  0
  1  2  2  0      
  2  3  1  0      
  3  4  2  0      
  4  5  1  0      
  5  6  2  0      
  6  1  1  0      
  1  7  1  0      
  5  8  1  0      
  8  9  1  0      
  3 10  1  0      
  7 11  1  0      
 11 12  1  0      
 12 13  1  0      
 13 14  1  0      
 14 15  1  0      
 15  7  1  0      
 10 16  2  0      
 16 17  1  0      
 17 18  2  0      
 18 19  1  0      
 19 20  2  0      
 20 10  1  0      
 18 21  1  0      
 21 22  1  0      
 22 23  1  0      
 22 24  2  0      
 23 25  1  0      
 25 26  2  0      
 26 27  1  0      
 27 28  2  0      
 28 29  1  0      
 29 30  2  0      
 30 25  1  0      
 28 31  1  0      
 31 32  1  0      
 31 33  2  0      
 32 34  1  0      
 34 35  1  0      
 35 36  1  0      
 36 37  1  0      
 37 38  1  0      
 38 39  1  0      
 39 40  1  0      
 40 41  1  0      
 39 42  2  0      
 41 43  2  0      
 43 44  1  0      
 44 45  2  0      
 45 46  1  0      
 46 47  2  0      
 47 41  1  0      
 47 48  1  0      
M  END

>  <RackCode>
HYCPK72336

>  <Cat. No.>
HY-149669

>  <Product Name>
PH14

>  <ROW>
O

>  <COLUMN>
8

>  <CAS No.>


>  <MWt>
653.73

>  <Target>
Apoptosis; HDAC; PI3K

>  <Saltdate>


>  <Smiles>
COC1=NC(N2CCOCC2)=NC(C3=CC=C(NC(NC4=CC=C(C(NCCCCCC(NC5=CC=CC=C5N)=O)=O)C=C4)=O)C=C3)=N1

>  <Solvent>
DMSO Solution

>  <Batch No.>
366102

>  <Quantity>
10mM  * 50uL

>  <Pathway>
Apoptosis; Cell Cycle/DNA Damage; Epigenetics; PI3K/Akt/mTOR

>  <Synonyms>


>  <Formula>
C34H39N9O5

>  <Research_Area>
Cancer

>  <Clinical_Information>
No Development Reported

>  <SUPPLIER>
MedChemExpress

$$$$
Untitled Document
  ChemDraw01041809092D

 36 40  0  0  0  0  0  0  0  0999 V2000
    0.0000    0.8250    0.0000 C   0  0  0  0  0  0  0  0  0  0  0  0
    0.7145    0.4125    0.0000 C   0  0  0  0  0  0  0  0  0  0  0  0
    0.7145   -0.4125    0.0000 C   0  0  0  0  0  0  0  0  0  0  0  0
    0.0000   -0.8250    0.0000 C   0  0  0  0  0  0  0  0  0  0  0  0
   -0.7145   -0.4125    0.0000 C   0  0  0  0  0  0  0  0  0  0  0  0
   -1.4289   -0.8250    0.0000 C   0  0  0  0  0  0  0  0  0  0  0  0
   -2.1434   -0.4125    0.0000 C   0  0  0  0  0  0  0  0  0  0  0  0
   -2.8579   -0.8250    0.0000 C   0  0  0  0  0  0  0  0  0  0  0  0
   -3.5724   -0.4125    0.0000 C   0  0  0  0  0  0  0  0  0  0  0  0
   -3.5724    0.4125    0.0000 C   0  0  0  0  0  0  0  0  0  0  0  0
   -2.8579    0.8250    0.0000 C   0  0  0  0  0  0  0  0  0  0  0  0
   -2.1434    0.4125    0.0000 C   0  0  0  0  0  0  0  0  0  0  0  0
   -1.4289    0.8250    0.0000 C   0  0  0  0  0  0  0  0  0  0  0  0
   -0.7145    0.4125    0.0000 C   0  0  0  0  0  0  0  0  0  0  0  0
   -1.4289    1.6500    0.0000 O   0  0  0  0  0  0  0  0  0  0  0  0
   -1.4289   -1.6500    0.0000 O   0  0  0  0  0  0  0  0  0  0  0  0
    0.0000   -1.6500    0.0000 N   0  0  0  0  0  0  0  0  0  0  0  0
    0.7145   -2.0625    0.0000 C   0  0  0  0  0  0  0  0  0  0  0  0
    0.7145   -2.8875    0.0000 C   0  0  0  0  0  0  0  0  0  0  0  0
    1.4289   -3.3000    0.0000 C   0  0  0  0  0  0  0  0  0  0  0  0
    2.1434   -2.8875    0.0000 C   0  0  0  0  0  0  0  0  0  0  0  0
    2.8579   -3.3000    0.0000 C   0  0  0  0  0  0  0  0  0  0  0  0
    2.8579   -4.1250    0.0000 C   0  0  0  0  0  0  0  0  0  0  0  0
    2.1434   -4.5375    0.0000 C   0  0  0  0  0  0  0  0  0  0  0  0
    1.4289   -4.1250    0.0000 C   0  0  0  0  0  0  0  0  0  0  0  0
    3.5724   -4.5375    0.0000 O   0  0  0  0  0  0  0  0  0  0  0  0
    0.0000    1.6500    0.0000 N   0  0  0  0  0  0  0  0  0  0  0  0
    0.7145    2.0625    0.0000 C   0  0  0  0  0  0  0  0  0  0  0  0
    0.7145    2.8875    0.0000 C   0  0  0  0  0  0  0  0  0  0  0  0
    1.4289    3.3000    0.0000 C   0  0  0  0  0  0  0  0  0  0  0  0
    1.4289    4.1250    0.0000 C   0  0  0  0  0  0  0  0  0  0  0  0
    2.1434    4.5375    0.0000 C   0  0  0  0  0  0  0  0  0  0  0  0
    2.8579    4.1250    0.0000 C   0  0  0  0  0  0  0  0  0  0  0  0
    2.8579    3.3000    0.0000 C   0  0  0  0  0  0  0  0  0  0  0  0
    2.1434    2.8875    0.0000 C   0  0  0  0  0  0  0  0  0  0  0  0
    3.5724    4.5375    0.0000 O   0  0  0  0  0  0  0  0  0  0  0  0
  1  2  1  0      
  2  3  2  0      
  3  4  1  0      
  4  5  2  0      
  5  6  1  0      
  6  7  1  0      
  7  8  1  0      
  8  9  2  0      
  9 10  1  0      
 10 11  2  0      
 11 12  1  0      
  7 12  2  0      
 12 13  1  0      
 13 14  1  0      
  5 14  1  0      
  1 14  2  0      
 13 15  2  0      
  6 16  2  0      
 18 19  1  0      
 20 21  1  0      
 21 22  2  0      
 22 23  1  0      
 23 24  2  0      
 24 25  1  0      
 20 25  2  0      
 23 26  1  0      
 19 20  1  0      
 17 18  1  0      
  4 17  1  0      
 28 29  1  0      
 30 31  1  0      
 31 32  2  0      
 32 33  1  0      
 33 34  2  0      
 34 35  1  0      
 30 35  2  0      
 33 36  1  0      
 29 30  1  0      
 27 28  1  0      
  1 27  1  0      
M  END

>  <RackCode>
HYCPK72336

>  <Cat. No.>
HY-108986

>  <Product Name>
JFD00244

>  <ROW>
P

>  <COLUMN>
8

>  <CAS No.>
96969-83-4

>  <MWt>
478.54

>  <Target>
SARS-CoV; Sirtuin

>  <Saltdate>
Free Base

>  <Smiles>
O=C1C2=C(C=CC=C2)C(C3=C(NCCC4=CC=C(O)C=C4)C=CC(NCCC5=CC=C(O)C=C5)=C13)=O

>  <Solvent>
DMSO Solution

>  <Batch No.>
227796

>  <Quantity>
10mM  * 50uL

>  <Pathway>
Anti-infection; Cell Cycle/DNA Damage; Epigenetics

>  <Synonyms>


>  <Formula>
C30H26N2O4

>  <Research_Area>
Cancer

>  <Clinical_Information>
No Development Reported

>  <SUPPLIER>
MedChemExpress

$$$$
Untitled Document
  ChemDraw09261714522D

 35 39  0  0  0  0  0  0  0  0999 V2000
   -2.8579    3.0938    0.0000 N   0  0  0  0  0  0  0  0  0  0  0  0
   -2.1434    2.6813    0.0000 C   0  0  0  0  0  0  0  0  0  0  0  0
   -2.1434    1.8563    0.0000 N   0  0  0  0  0  0  0  0  0  0  0  0
   -2.8579    1.4438    0.0000 C   0  0  0  0  0  0  0  0  0  0  0  0
   -3.5724    1.8563    0.0000 C   0  0  0  0  0  0  0  0  0  0  0  0
   -4.2868    1.4438    0.0000 C   0  0  0  0  0  0  0  0  0  0  0  0
   -5.0013    1.8563    0.0000 C   0  0  0  0  0  0  0  0  0  0  0  0
   -5.0013    2.6813    0.0000 C   0  0  0  0  0  0  0  0  0  0  0  0
   -4.2868    3.0938    0.0000 C   0  0  0  0  0  0  0  0  0  0  0  0
   -3.5724    2.6813    0.0000 C   0  0  0  0  0  0  0  0  0  0  0  0
   -2.8579    0.6188    0.0000 O   0  0  0  0  0  0  0  0  0  0  0  0
   -1.4289    3.0938    0.0000 S   0  0  0  0  0  0  0  0  0  0  0  0
   -1.4289    1.4438    0.0000 C   0  0  0  0  0  0  0  0  0  0  0  0
   -0.7145    1.8563    0.0000 C   0  0  0  0  0  0  0  0  0  0  0  0
    0.0000    1.4438    0.0000 N   0  0  0  0  0  0  0  0  0  0  0  0
    0.7145    1.8563    0.0000 C   0  0  0  0  0  0  0  0  0  0  0  0
    1.4289    1.4438    0.0000 C   0  0  0  0  0  0  0  0  0  0  0  0
    1.4289    0.6188    0.0000 C   0  0  0  0  0  0  0  0  0  0  0  0
    0.7145    0.2063    0.0000 C   0  0  0  0  0  0  0  0  0  0  0  0
    0.0000    0.6188    0.0000 C   0  0  0  0  0  0  0  0  0  0  0  0
    2.1434    0.2063    0.0000 C   0  0  0  0  0  0  0  0  0  0  0  0
    2.8579    0.6188    0.0000 C   0  0  0  0  0  0  0  0  0  0  0  0
    2.8579    1.4438    0.0000 C   0  0  0  0  0  0  0  0  0  0  0  0
    3.5724    1.8563    0.0000 C   0  0  0  0  0  0  0  0  0  0  0  0
    4.2868    1.4438    0.0000 C   0  0  0  0  0  0  0  0  0  0  0  0
    4.2868    0.6188    0.0000 C   0  0  0  0  0  0  0  0  0  0  0  0
    3.5724    0.2063    0.0000 C   0  0  0  0  0  0  0  0  0  0  0  0
    5.0013    1.8563    0.0000 F   0  0  0  0  0  0  0  0  0  0  0  0
    2.1434   -0.6188    0.0000 C   0  0  0  0  0  0  0  0  0  0  0  0
    2.8579   -1.0313    0.0000 C   0  0  0  0  0  0  0  0  0  0  0  0
    2.8579   -1.8563    0.0000 C   0  0  0  0  0  0  0  0  0  0  0  0
    2.1434   -2.2688    0.0000 C   0  0  0  0  0  0  0  0  0  0  0  0
    1.4289   -1.8563    0.0000 C   0  0  0  0  0  0  0  0  0  0  0  0
    1.4289   -1.0313    0.0000 C   0  0  0  0  0  0  0  0  0  0  0  0
    2.1434   -3.0938    0.0000 F   0  0  0  0  0  0  0  0  0  0  0  0
  1  2  1  0      
  2  3  1  0      
  3  4  1  0      
  4  5  1  0      
  5  6  1  0      
  6  7  2  0      
  7  8  1  0      
  8  9  2  0      
  9 10  1  0      
  1 10  1  0      
  5 10  2  0      
  4 11  2  0      
  2 12  2  0      
 13 14  1  0      
 15 16  1  0      
 16 17  1  0      
 17 18  1  0      
 18 19  1  0      
 19 20  1  0      
 15 20  1  0      
 22 23  1  0      
 23 24  2  0      
 24 25  1  0      
 25 26  2  0      
 26 27  1  0      
 22 27  2  0      
 25 28  1  0      
 21 22  1  0      
 29 30  1  0      
 30 31  2  0      
 31 32  1  0      
 32 33  2  0      
 33 34  1  0      
 29 34  2  0      
 32 35  1  0      
 21 29  1  0      
 18 21  2  0      
 14 15  1  0      
  3 13  1  0      
M  END

>  <RackCode>
HYCPK72336

>  <Cat. No.>
HY-108355

>  <Product Name>
R59949

>  <ROW>
A

>  <COLUMN>
9

>  <CAS No.>
120166-69-0

>  <MWt>
489.58

>  <Target>
PKC

>  <Saltdate>


>  <Smiles>
O=C1N(CCN2CC/C(CC2)=C(C3=CC=C(F)C=C3)\C4=CC=C(F)C=C4)C(NC5=C1C=CC=C5)=S

>  <Solvent>
DMSO Solution

>  <Batch No.>
250911

>  <Quantity>
10mM  * 50uL

>  <Pathway>
Epigenetics; TGF-beta/Smad

>  <Synonyms>


>  <Formula>
C28H25F2N3OS

>  <Research_Area>
Cancer

>  <Clinical_Information>
No Development Reported

>  <SUPPLIER>
MedChemExpress

$$$$
Untitled Document
  ChemDraw12041810262D

 28 30  0  0  0  0  0  0  0  0999 V2000
   -0.3523    0.6195    0.0000 C   0  0  0  0  0  0  0  0  0  0  0  0
   -0.3523   -0.2055    0.0000 C   0  0  0  0  0  0  0  0  0  0  0  0
    0.3622   -0.6180    0.0000 C   0  0  0  0  0  0  0  0  0  0  0  0
    1.0767   -0.2055    0.0000 C   0  0  0  0  0  0  0  0  0  0  0  0
    1.0767    0.6195    0.0000 C   0  0  0  0  0  0  0  0  0  0  0  0
    0.3622    1.0320    0.0000 C   0  0  0  0  0  0  0  0  0  0  0  0
   -1.0643    1.0305    0.0000 C   0  0  0  0  0  0  0  0  0  0  0  0
    1.7887   -0.6166    0.0000 C   0  0  0  0  0  0  0  0  0  0  0  0
    2.5006   -0.2055    0.0000 C   0  0  0  0  0  0  0  0  0  0  0  0
    1.7887   -1.4387    0.0000 C   0  0  0  0  0  0  0  0  0  0  0  0
    3.2102   -0.6152    0.0000 N   0  0  0  0  0  0  0  0  0  0  0  0
    2.5006    0.6137    0.0000 O   0  0  0  0  0  0  0  0  0  0  0  0
    3.9172   -0.2070    0.0000 O   0  0  0  0  0  0  0  0  0  0  0  0
    1.0742   -1.8512    0.0000 C   0  0  0  0  0  0  0  0  0  0  0  0
    1.0742   -2.6762    0.0000 C   0  0  0  0  0  0  0  0  0  0  0  0
    1.7887   -3.0887    0.0000 C   0  0  0  0  0  0  0  0  0  0  0  0
    2.5031   -2.6762    0.0000 C   0  0  0  0  0  0  0  0  0  0  0  0
    2.5031   -1.8512    0.0000 C   0  0  0  0  0  0  0  0  0  0  0  0
   -1.0643    1.8555    0.0000 N   0  0  0  0  0  0  0  0  0  0  0  0
   -1.7787    2.2680    0.0000 C   0  0  0  0  0  0  0  0  0  0  0  0
   -2.4932    1.8555    0.0000 C   0  0  0  0  0  0  0  0  0  0  0  0
   -2.4932    1.0305    0.0000 C   0  0  0  0  0  0  0  0  0  0  0  0
   -1.7787    0.6180    0.0000 N   0  0  0  0  0  0  0  0  0  0  0  0
    0.3622   -1.4402    0.0000 F   0  0  0  0  0  0  0  0  0  0  0  0
   -3.2052    2.2666    0.0000 C   0  0  0  0  0  0  0  0  0  0  0  0
   -3.2052    3.0887    0.0000 F   0  0  0  0  0  0  0  0  0  0  0  0
   -3.9172    2.6777    0.0000 F   0  0  0  0  0  0  0  0  0  0  0  0
   -3.9172    1.8555    0.0000 F   0  0  0  0  0  0  0  0  0  0  0  0
  1  2  2  0      
  2  3  1  0      
  3  4  2  0      
  4  5  1  0      
  5  6  2  0      
  6  1  1  0      
  1  7  1  0      
  4  8  1  0      
  8  9  1  0      
  8 10  1  0      
  9 11  1  0      
  9 12  2  0      
 11 13  1  0      
 10 14  2  0      
 14 15  1  0      
 15 16  2  0      
 16 17  1  0      
 17 18  2  0      
 18 10  1  0      
  7 19  2  0      
 19 20  1  0      
 20 21  2  0      
 21 22  1  0      
 22 23  2  0      
 23  7  1  0      
 21 25  1  0      
 14 24  1  0      
 25 26  1  0      
 25 27  1  0      
 25 28  1  0      
M  END

>  <RackCode>
HYCPK72336

>  <Cat. No.>
HY-119939

>  <Product Name>
CHDI-390576

>  <ROW>
B

>  <COLUMN>
9

>  <CAS No.>
1629729-98-1

>  <MWt>
391.32

>  <Target>
HDAC

>  <Saltdate>
Free Base

>  <Smiles>
O=C(NO)C(C1=C(F)C=CC=C1)C2=CC=C(C3=NC=C(C(F)(F)F)C=N3)C=C2

>  <Solvent>
DMSO Solution

>  <Batch No.>
109707

>  <Quantity>
10mM  * 50uL

>  <Pathway>
Cell Cycle/DNA Damage; Epigenetics

>  <Synonyms>


>  <Formula>
C19H13F4N3O2

>  <Research_Area>
Cancer

>  <Clinical_Information>
No Development Reported

>  <SUPPLIER>
MedChemExpress

$$$$
Untitled Document
  ChemDraw04251616072D

 30 33  0  0  0  0  0  0  0  0999 V2000
   -3.0699    0.2483    0.0000 C   0  0  0  0  0  0  0  0  0  0  0  0
   -3.0699   -0.5767    0.0000 C   0  0  0  0  0  0  0  0  0  0  0  0
   -2.3554   -0.9892    0.0000 C   0  0  0  0  0  0  0  0  0  0  0  0
   -1.6409   -0.5767    0.0000 C   0  0  0  0  0  0  0  0  0  0  0  0
   -1.6409    0.2483    0.0000 C   0  0  0  0  0  0  0  0  0  0  0  0
   -2.3554    0.6608    0.0000 C   0  0  0  0  0  0  0  0  0  0  0  0
   -0.9265   -0.9892    0.0000 N   0  0  0  0  0  0  0  0  0  0  0  0
   -0.2120   -0.5767    0.0000 C   0  0  0  0  0  0  0  0  0  0  0  0
   -0.2120    0.2483    0.0000 N   0  0  0  0  0  0  0  0  0  0  0  0
   -0.9265    0.6608    0.0000 C   0  0  0  0  0  0  0  0  0  0  0  0
   -3.7843    0.6608    0.0000 O   0  0  0  0  0  0  0  0  0  0  0  0
   -3.6532   -1.1601    0.0000 O   0  0  0  0  0  0  0  0  0  0  0  0
   -4.3677   -0.7476    0.0000 C   0  0  0  0  0  0  0  0  0  0  0  0
   -4.4988    0.2483    0.0000 C   0  0  0  0  0  0  0  0  0  0  0  0
   -0.9265    1.4858    0.0000 N   0  0  0  0  0  0  0  0  0  0  0  0
    0.5025   -0.9892    0.0000 N   0  0  0  0  0  0  0  0  0  0  0  0
   -0.3431    2.0691    0.0000 C   0  0  0  0  0  0  0  0  0  0  0  0
    0.3714    1.6567    0.0000 C   0  0  0  0  0  0  0  0  0  0  0  0
    1.0859    2.0691    0.0000 C   0  0  0  0  0  0  0  0  0  0  0  0
    1.8002    1.6567    0.0000 C   0  0  0  0  0  0  0  0  0  0  0  0
    2.5148    2.0691    0.0000 C   0  0  0  0  0  0  0  0  0  0  0  0
    3.2293    1.6567    0.0000 N   0  0  0  0  0  0  0  0  0  0  0  0
    3.2293    0.8317    0.0000 C   0  0  0  0  0  0  0  0  0  0  0  0
    4.0139    0.5767    0.0000 C   0  0  0  0  0  0  0  0  0  0  0  0
    4.4988    1.2442    0.0000 C   0  0  0  0  0  0  0  0  0  0  0  0
    4.0139    1.9115    0.0000 C   0  0  0  0  0  0  0  0  0  0  0  0
    0.5027   -1.8141    0.0000 C   0  0  0  0  0  0  0  0  0  0  0  0
    1.2873   -2.0691    0.0000 C   0  0  0  0  0  0  0  0  0  0  0  0
    1.7721   -1.4017    0.0000 C   0  0  0  0  0  0  0  0  0  0  0  0
    1.2873   -0.7343    0.0000 C   0  0  0  0  0  0  0  0  0  0  0  0
  1  2  2  0      
  2  3  1  0      
  3  4  2  0      
  4  5  1  0      
  5  6  2  0      
  6  1  1  0      
  4  7  1  0      
  7  8  2  0      
  8  9  1  0      
  9 10  2  0      
 10  5  1  0      
  1 11  1  0      
  2 12  1  0      
 12 13  1  0      
 11 14  1  0      
 10 15  1  0      
  8 16  1  0      
 15 17  1  0      
 17 18  1  0      
 18 19  1  0      
 19 20  1  0      
 20 21  1  0      
 21 22  1  0      
 22 23  1  0      
 23 24  1  0      
 24 25  1  0      
 25 26  1  0      
 26 22  1  0      
 16 27  1  0      
 27 28  1  0      
 28 29  1  0      
 29 30  1  0      
 30 16  1  0      
M  END

>  <RackCode>
HYCPK72336

>  <Cat. No.>
HY-12335

>  <Product Name>
UNC0379

>  <ROW>
C

>  <COLUMN>
9

>  <CAS No.>
1620401-82-2

>  <MWt>
413.56

>  <Target>
Histone Methyltransferase

>  <Saltdate>
Free Base

>  <Smiles>
COC1=C(OC)C=C2C(N=C(N3CCCC3)N=C2NCCCCCN4CCCC4)=C1

>  <Solvent>
DMSO Solution

>  <Batch No.>
286978

>  <Quantity>
10mM  * 50uL

>  <Pathway>
Epigenetics

>  <Synonyms>


>  <Formula>
C23H35N5O2

>  <Research_Area>
Cancer; Inflammation/Immunology

>  <Clinical_Information>
No Development Reported

>  <SUPPLIER>
MedChemExpress

$$$$
Untitled Document
  ChemDraw10161711172D

 28 31  0  0  0  0  0  0  0  0999 V2000
    0.3592    2.6839    0.0000 C   0  0  0  0  0  0  0  0  0  0  0  0
    1.0713    2.2705    0.0000 C   0  0  0  0  0  0  0  0  0  0  0  0
    1.0713    1.4435    0.0000 C   0  0  0  0  0  0  0  0  0  0  0  0
    0.3592    1.0221    0.0000 C   0  0  0  0  0  0  0  0  0  0  0  0
   -0.3530    1.4435    0.0000 C   0  0  0  0  0  0  0  0  0  0  0  0
   -0.3530    2.2705    0.0000 C   0  0  0  0  0  0  0  0  0  0  0  0
    0.3592    0.1971    0.0000 N   0  0  0  0  0  0  0  0  0  0  0  0
    1.0734   -0.2104    0.0000 C   0  0  0  0  0  0  0  0  0  0  0  0
    1.0734   -1.0354    0.0000 C   0  0  0  0  0  0  0  0  0  0  0  0
    0.3592   -1.4529    0.0000 N   0  0  0  0  0  0  0  0  0  0  0  0
   -0.3571   -1.0354    0.0000 C   0  0  0  0  0  0  0  0  0  0  0  0
   -0.3571   -0.2104    0.0000 C   0  0  0  0  0  0  0  0  0  0  0  0
    0.3592   -2.2779    0.0000 C   0  0  0  0  0  0  0  0  0  0  0  0
    1.0734   -2.6854    0.0000 O   0  0  0  0  0  0  0  0  0  0  0  0
   -0.3551   -2.6854    0.0000 C   0  0  0  0  0  0  0  0  0  0  0  0
   -0.3551   -3.5104    0.0000 C   0  0  0  0  0  0  0  0  0  0  0  0
   -1.0672   -3.9199    0.0000 C   0  0  0  0  0  0  0  0  0  0  0  0
   -1.7835   -3.5104    0.0000 C   0  0  0  0  0  0  0  0  0  0  0  0
   -1.7835   -2.6854    0.0000 C   0  0  0  0  0  0  0  0  0  0  0  0
   -1.0672   -2.2779    0.0000 C   0  0  0  0  0  0  0  0  0  0  0  0
   -2.4977   -3.9199    0.0000 Cl  0  0  0  0  0  0  0  0  0  0  0  0
    1.7835    1.0221    0.0000 C   0  0  0  0  0  0  0  0  0  0  0  0
    2.4977    1.4435    0.0000 C   0  0  0  0  0  0  0  0  0  0  0  0
    2.4977    2.2705    0.0000 C   0  0  0  0  0  0  0  0  0  0  0  0
    1.7835    2.6839    0.0000 N   0  0  0  0  0  0  0  0  0  0  0  0
    0.3592    3.5089    0.0000 N   0  3  0  0  0  0  0  0  0  0  0  0
    1.0712    3.9199    0.0000 O   0  0  0  0  0  0  0  0  0  0  0  0
   -0.3528    3.9199    0.0000 O   0  5  0  0  0  0  0  0  0  0  0  0
 26  1  1  0      
  1  2  2  0      
  1  6  1  0      
  2  3  1  0      
  2 25  1  0      
  3  4  2  0      
  3 22  1  0      
  5  4  1  0      
  4  7  1  0      
  6  5  2  0      
  7  8  1  0      
  7 12  1  0      
  8  9  1  0      
  9 10  1  0      
 11 10  1  0      
 10 13  1  0      
 12 11  1  0      
 13 14  2  0      
 13 15  1  0      
 15 16  2  0      
 15 20  1  0      
 16 17  1  0      
 17 18  2  0      
 19 18  1  0      
 18 21  1  0      
 20 19  2  0      
 22 23  2  0      
 24 23  1  0      
 25 24  2  0      
 26 27  2  0      
 26 28  1  0      
M  CHG  2  26   1  28  -1
M  END

>  <RackCode>
HYCPK72336

>  <Cat. No.>
HY-107660

>  <Product Name>
SIRT2-IN-8

>  <ROW>
D

>  <COLUMN>
9

>  <CAS No.>
115687-05-3

>  <MWt>
396.83

>  <Target>
Sirtuin

>  <Saltdate>


>  <Smiles>
O=C(C1=CC=C(Cl)C=C1)N(CC2)CCN2C(C=C3)=C(C=CC=N4)C4=C3[N+]([O-])=O

>  <Solvent>
DMSO Solution

>  <Batch No.>
160379

>  <Quantity>
10mM  * 50uL

>  <Pathway>
Cell Cycle/DNA Damage; Epigenetics

>  <Synonyms>


>  <Formula>
C20H17ClN4O3

>  <Research_Area>
Neurological Disease

>  <Clinical_Information>
No Development Reported

>  <SUPPLIER>
MedChemExpress

$$$$
Untitled Document
  ChemDraw03312413592D

 83 90  0  0  0  0  0  0  0  0999 V2000
  -12.2835    3.0922    0.0000 C   0  0  0  0  0  0  0  0  0  0  0  0
  -12.2835    2.2672    0.0000 C   0  0  0  0  0  0  0  0  0  0  0  0
  -11.5690    1.8546    0.0000 C   0  0  0  0  0  0  0  0  0  0  0  0
  -10.8545    2.2672    0.0000 C   0  0  0  0  0  0  0  0  0  0  0  0
  -10.8545    3.0922    0.0000 C   0  0  0  0  0  0  0  0  0  0  0  0
  -11.5690    3.5047    0.0000 N   0  0  0  0  0  0  0  0  0  0  0  0
  -11.5690    1.0325    0.0000 C   0  0  0  0  0  0  0  0  0  0  0  0
  -12.9955    3.5033    0.0000 C   0  0  0  0  0  0  0  0  0  0  0  0
  -10.1425    3.5033    0.0000 O   0  0  0  0  0  0  0  0  0  0  0  0
  -10.1425    1.8561    0.0000 C   0  0  0  0  0  0  0  0  0  0  0  0
   -9.4305    2.2672    0.0000 N   0  0  0  0  0  0  0  0  0  0  0  0
   -8.7185    1.8561    0.0000 C   0  0  0  0  0  0  0  0  0  0  0  0
   -8.0065    2.2672    0.0000 O   0  0  0  0  0  0  0  0  0  0  0  0
   -8.7185    1.0339    0.0000 C   0  0  0  0  0  0  0  0  0  0  0  0
   -9.4330    0.6214    0.0000 C   0  0  0  0  0  0  0  0  0  0  0  0
   -9.4330   -0.2036    0.0000 C   0  0  0  0  0  0  0  0  0  0  0  0
   -8.7185   -0.6161    0.0000 C   0  0  0  0  0  0  0  0  0  0  0  0
   -8.0040   -0.2036    0.0000 C   0  0  0  0  0  0  0  0  0  0  0  0
   -8.0040    0.6214    0.0000 C   0  0  0  0  0  0  0  0  0  0  0  0
  -10.1450    1.0325    0.0000 C   0  0  0  0  0  0  0  0  0  0  0  0
   -7.2920   -0.6146    0.0000 C   0  0  0  0  0  0  0  0  0  0  0  0
   -6.5775   -0.2021    0.0000 C   0  0  0  0  0  0  0  0  0  0  0  0
   -5.8630   -0.6146    0.0000 C   0  0  0  0  0  0  0  0  0  0  0  0
   -5.8630   -1.4396    0.0000 C   0  0  0  0  0  0  0  0  0  0  0  0
   -6.5775   -1.8521    0.0000 C   0  0  0  0  0  0  0  0  0  0  0  0
   -7.2920   -1.4396    0.0000 C   0  0  0  0  0  0  0  0  0  0  0  0
   -5.1510   -1.8507    0.0000 C   0  0  0  0  0  0  0  0  0  0  0  0
   -4.4390   -1.4396    0.0000 N   0  0  0  0  0  0  0  0  0  0  0  0
   -3.7245   -1.8521    0.0000 C   0  0  0  0  0  0  0  0  0  0  0  0
   -3.0101   -1.4396    0.0000 C   0  0  0  0  0  0  0  0  0  0  0  0
   -3.0101   -0.6146    0.0000 N   0  0  0  0  0  0  0  0  0  0  0  0
   -3.7245   -0.2021    0.0000 C   0  0  0  0  0  0  0  0  0  0  0  0
   -4.4390   -0.6146    0.0000 C   0  0  0  0  0  0  0  0  0  0  0  0
   -2.2956   -0.2021    0.0000 C   0  0  0  0  0  0  0  0  0  0  0  0
   -1.5810   -0.6146    0.0000 C   0  0  0  0  0  0  0  0  0  0  0  0
   -0.8666   -0.2021    0.0000 C   0  0  0  0  0  0  0  0  0  0  0  0
   -0.1521   -0.6146    0.0000 C   0  0  0  0  0  0  0  0  0  0  0  0
    0.5624   -0.2021    0.0000 C   0  0  0  0  0  0  0  0  0  0  0  0
    1.2769   -0.6146    0.0000 C   0  0  0  0  0  0  0  0  0  0  0  0
    1.9913   -0.2021    0.0000 C   0  0  0  0  0  0  0  0  0  0  0  0
    2.7059   -0.6146    0.0000 C   0  0  0  0  0  0  0  0  0  0  0  0
    3.4204   -0.2021    0.0000 C   0  0  0  0  0  0  0  0  0  0  0  0
    4.1348   -0.6146    0.0000 N   0  0  0  0  0  0  0  0  0  0  0  0
   -2.2956    0.6200    0.0000 O   0  0  0  0  0  0  0  0  0  0  0  0
    3.4204    0.6200    0.0000 O   0  0  0  0  0  0  0  0  0  0  0  0
    4.8468   -0.2036    0.0000 C   0  0  0  0  0  0  0  0  0  0  0  0
    5.5588   -0.6146    0.0000 C   0  0  0  0  0  0  0  0  0  0  0  0
    4.8468    0.6186    0.0000 C   0  0  0  0  0  0  0  0  0  0  0  0
    6.2708   -0.2036    0.0000 N   0  0  0  0  0  0  0  0  0  0  0  0
    5.5588   -1.4368    0.0000 O   0  0  0  0  0  0  0  0  0  0  0  0
    7.0246   -0.5391    0.0000 C   0  0  0  0  0  0  0  0  0  0  0  0
    7.5766    0.0740    0.0000 C   0  0  0  0  0  0  0  0  0  0  0  0
    7.1641    0.7884    0.0000 C   0  0  0  0  0  0  0  0  0  0  0  0
    6.3570    0.6169    0.0000 C   0  0  0  0  0  0  0  0  0  0  0  0
    4.1348    1.0296    0.0000 C   0  0  0  0  0  0  0  0  0  0  0  0
    5.5588    1.0296    0.0000 C   0  0  0  0  0  0  0  0  0  0  0  0
    4.8468    1.4436    0.0000 C   0  0  0  0  0  0  0  0  0  0  0  0
    7.1955   -1.3433    0.0000 C   0  0  0  0  0  0  0  0  0  0  0  0
    8.0205   -1.3433    0.0000 N   0  0  0  0  0  0  0  0  0  0  0  0
    6.6780   -1.9822    0.0000 O   0  0  0  0  0  0  0  0  0  0  0  0
    8.4316   -2.0553    0.0000 C   0  0  0  0  0  0  0  0  0  0  0  0
    9.2537   -2.0553    0.0000 C   0  0  0  0  0  0  0  0  0  0  0  0
    9.6662   -2.7699    0.0000 C   0  0  0  0  0  0  0  0  0  0  0  0
   10.4912   -2.7699    0.0000 C   0  0  0  0  0  0  0  0  0  0  0  0
   10.9037   -2.0553    0.0000 C   0  0  0  0  0  0  0  0  0  0  0  0
   10.4912   -1.3408    0.0000 C   0  0  0  0  0  0  0  0  0  0  0  0
    9.6662   -1.3408    0.0000 C   0  0  0  0  0  0  0  0  0  0  0  0
   11.7260   -2.0553    0.0000 C   0  0  0  0  0  0  0  0  0  0  0  0
   12.2109   -2.7228    0.0000 C   0  0  0  0  0  0  0  0  0  0  0  0
   12.9955   -2.4679    0.0000 N   0  0  0  0  0  0  0  0  0  0  0  0
   12.9955   -1.6428    0.0000 C   0  0  0  0  0  0  0  0  0  0  0  0
   12.2109   -1.3879    0.0000 S   0  0  0  0  0  0  0  0  0  0  0  0
   11.9568   -3.5047    0.0000 C   0  0  0  0  0  0  0  0  0  0  0  0
  -10.2299   -0.4171    0.0000 N   0  0  0  0  0  0  0  0  0  0  0  0
  -10.4426   -1.2112    0.0000 C   0  0  0  0  0  0  0  0  0  0  0  0
  -10.8112    0.1642    0.0000 C   0  0  0  0  0  0  0  0  0  0  0  0
  -11.6054   -0.0485    0.0000 C   0  0  0  0  0  0  0  0  0  0  0  0
  -11.2395   -1.4247    0.0000 C   0  0  0  0  0  0  0  0  0  0  0  0
  -11.4532   -2.2216    0.0000 C   0  0  0  0  0  0  0  0  0  0  0  0
  -10.8697   -2.8051    0.0000 O   0  0  0  0  0  0  0  0  0  0  0  0
  -10.0728   -2.5916    0.0000 C   0  0  0  0  0  0  0  0  0  0  0  0
   -9.8593   -1.7946    0.0000 C   0  0  0  0  0  0  0  0  0  0  0  0
    7.4985    1.5395    0.0000 O   0  0  0  0  0  0  0  0  0  0  0  0
  1  2  2  0      
  2  3  1  0      
  3  4  2  0      
  4  5  1  0      
  5  6  1  0      
  6  1  1  0      
  3  7  1  0      
  1  8  1  0      
  5  9  2  0      
  4 10  1  0      
 10 11  1  0      
 11 12  1  0      
 12 13  2  0      
 12 14  1  0      
 14 15  2  0      
 15 16  1  0      
 16 17  2  0      
 17 18  1  0      
 18 19  2  0      
 19 14  1  0      
 15 20  1  0      
 18 21  1  0      
 21 22  2  0      
 22 23  1  0      
 23 24  2  0      
 24 25  1  0      
 25 26  2  0      
 26 21  1  0      
 24 27  1  0      
 27 28  1  0      
 28 29  1  0      
 29 30  1  0      
 30 31  1  0      
 31 32  1  0      
 32 33  1  0      
 33 28  1  0      
 31 34  1  0      
 34 35  1  0      
 35 36  1  0      
 36 37  1  0      
 37 38  1  0      
 38 39  1  0      
 39 40  1  0      
 40 41  1  0      
 41 42  1  0      
 42 43  1  0      
 34 44  2  0      
 42 45  2  0      
 43 46  1  0      
 46 47  1  0      
 46 48  1  1      
 47 49  1  0      
 47 50  2  0      
 49 51  1  0      
 51 52  1  0      
 52 53  1  0      
 53 54  1  0      
 54 49  1  0      
 48 55  1  0      
 48 56  1  0      
 48 57  1  0      
 51 58  1  1      
 58 59  1  0      
 58 60  2  0      
 59 61  1  0      
 61 62  1  0      
 62 63  2  0      
 63 64  1  0      
 64 65  2  0      
 65 66  1  0      
 66 67  2  0      
 67 62  1  0      
 65 68  1  0      
 68 69  2  0      
 69 70  1  0      
 70 71  2  0      
 71 72  1  0      
 72 68  1  0      
 69 73  1  0      
 16 74  1  0      
 74 75  1  0      
 74 76  1  0      
 76 77  1  0      
 75 78  1  0      
 78 79  1  0      
 79 80  1  0      
 80 81  1  0      
 81 82  1  0      
 82 75  1  0      
 53 83  1  6      
M  END

>  <RackCode>
HYCPK72336

>  <Cat. No.>
HY-148334

>  <Product Name>
MS8815

>  <ROW>
E

>  <COLUMN>
9

>  <CAS No.>
2855085-25-3

>  <MWt>
1154.51

>  <Target>
Histone Methyltransferase; PROTACs

>  <Saltdate>


>  <Smiles>
CC(C=C(C)N1)=C(CNC(C2=C(C)C(N(CC)C3CCOCC3)=CC(C4=CC=C(CN5CCN(C(CCCCCCCC(N[C@@H](C(C)(C)C)C(N6[C@H](C(NCC7=CC=C(C8=C(C)N=CS8)C=C7)=O)C[C@@H](O)C6)=O)=O)=O)CC5)C=C4)=C2)=O)C1=O

>  <Solvent>
DMSO Solution

>  <Batch No.>
252785

>  <Quantity>
10mM  * 50uL

>  <Pathway>
Epigenetics; PROTAC

>  <Synonyms>


>  <Formula>
C65H87N9O8S

>  <Research_Area>
Cancer

>  <Clinical_Information>
No Development Reported

>  <SUPPLIER>
MedChemExpress

$$$$
Untitled Document
  ChemDraw01102214352D

 40 44  0  0  0  0  0  0  0  0999 V2000
   -3.5686    1.0320    0.0000 C   0  0  0  0  0  0  0  0  0  0  0  0
   -3.5686    0.2070    0.0000 C   0  0  0  0  0  0  0  0  0  0  0  0
   -2.8542   -0.2055    0.0000 C   0  0  0  0  0  0  0  0  0  0  0  0
   -2.1397    0.2070    0.0000 C   0  0  0  0  0  0  0  0  0  0  0  0
   -2.1397    1.0320    0.0000 C   0  0  0  0  0  0  0  0  0  0  0  0
   -2.8542    1.4445    0.0000 C   0  0  0  0  0  0  0  0  0  0  0  0
   -1.4252   -0.2055    0.0000 C   0  0  0  0  0  0  0  0  0  0  0  0
   -0.7108    0.2070    0.0000 N   0  0  0  0  0  0  0  0  0  0  0  0
   -0.7108    1.0320    0.0000 C   0  0  0  0  0  0  0  0  0  0  0  0
   -1.4252    1.4445    0.0000 N   0  0  0  0  0  0  0  0  0  0  0  0
   -1.4252   -1.0277    0.0000 O   0  0  0  0  0  0  0  0  0  0  0  0
   -2.8542   -1.0277    0.0000 O   0  0  0  0  0  0  0  0  0  0  0  0
   -2.1422   -1.4387    0.0000 C   0  0  0  0  0  0  0  0  0  0  0  0
   -4.2806    1.4430    0.0000 O   0  0  0  0  0  0  0  0  0  0  0  0
   -4.9926    1.0320    0.0000 C   0  0  0  0  0  0  0  0  0  0  0  0
    0.0012    1.4430    0.0000 C   0  0  0  0  0  0  0  0  0  0  0  0
    0.7157    1.0305    0.0000 C   0  0  0  0  0  0  0  0  0  0  0  0
    1.4302    1.4430    0.0000 C   0  0  0  0  0  0  0  0  0  0  0  0
    1.4302    2.2680    0.0000 C   0  0  0  0  0  0  0  0  0  0  0  0
    0.7157    2.6805    0.0000 C   0  0  0  0  0  0  0  0  0  0  0  0
    0.0012    2.2680    0.0000 C   0  0  0  0  0  0  0  0  0  0  0  0
    2.1422    2.6791    0.0000 O   0  0  0  0  0  0  0  0  0  0  0  0
    2.8542    2.2680    0.0000 C   0  0  0  0  0  0  0  0  0  0  0  0
    3.5662    2.6791    0.0000 C   0  0  0  0  0  0  0  0  0  0  0  0
    4.2781    2.2680    0.0000 N   0  0  0  0  0  0  0  0  0  0  0  0
    3.5662    3.5012    0.0000 O   0  0  0  0  0  0  0  0  0  0  0  0
    4.2781    1.4430    0.0000 C   0  0  0  0  0  0  0  0  0  0  0  0
    3.5637    1.0305    0.0000 C   0  0  0  0  0  0  0  0  0  0  0  0
    3.5637    0.2055    0.0000 C   0  0  0  0  0  0  0  0  0  0  0  0
    4.2781   -0.2070    0.0000 C   0  0  0  0  0  0  0  0  0  0  0  0
    4.9926    0.2055    0.0000 C   0  0  0  0  0  0  0  0  0  0  0  0
    4.9926    1.0305    0.0000 C   0  0  0  0  0  0  0  0  0  0  0  0
    2.8517   -0.2055    0.0000 Cl  0  0  0  0  0  0  0  0  0  0  0  0
    4.2781   -1.0291    0.0000 N   0  0  0  0  0  0  0  0  0  0  0  0
    3.5637   -1.4416    0.0000 C   0  0  0  0  0  0  0  0  0  0  0  0
    3.5637   -2.2666    0.0000 C   0  0  0  0  0  0  0  0  0  0  0  0
    4.2781   -2.6791    0.0000 N   0  0  0  0  0  0  0  0  0  0  0  0
    4.9926   -2.2666    0.0000 C   0  0  0  0  0  0  0  0  0  0  0  0
    4.9926   -1.4416    0.0000 C   0  0  0  0  0  0  0  0  0  0  0  0
    4.2781   -3.5012    0.0000 C   0  0  0  0  0  0  0  0  0  0  0  0
  1  2  2  0      
  2  3  1  0      
  3  4  2  0      
  4  5  1  0      
  5  6  2  0      
  6  1  1  0      
  4  7  1  0      
  7  8  1  0      
  8  9  1  0      
  9 10  2  0      
 10  5  1  0      
  7 11  2  0      
  3 12  1  0      
 12 13  1  0      
  1 14  1  0      
 14 15  1  0      
  9 16  1  0      
 16 17  2  0      
 17 18  1  0      
 18 19  2  0      
 19 20  1  0      
 20 21  2  0      
 21 16  1  0      
 19 22  1  0      
 22 23  1  0      
 23 24  1  0      
 24 25  1  0      
 24 26  2  0      
 25 27  1  0      
 27 28  2  0      
 28 29  1  0      
 29 30  2  0      
 30 31  1  0      
 31 32  2  0      
 32 27  1  0      
 29 33  1  0      
 30 34  1  0      
 34 35  1  0      
 35 36  1  0      
 36 37  1  0      
 37 38  1  0      
 38 39  1  0      
 39 34  1  0      
 37 40  1  0      
M  END

>  <RackCode>
HYCPK72336

>  <Cat. No.>
HY-145260

>  <Product Name>
BRD4/CK2-IN-1

>  <ROW>
F

>  <COLUMN>
9

>  <CAS No.>
2756851-99-5

>  <MWt>
564.03

>  <Target>
Apoptosis; Autophagy; Casein Kinase; Epigenetic Reader Domain

>  <Saltdate>


>  <Smiles>
O=C1C2=C(OC)C=C(OC)C=C2N=C(C3=CC=C(OCC(NC4=CC(Cl)=C(N5CCN(C)CC5)C=C4)=O)C=C3)N1

>  <Solvent>
DMSO Solution

>  <Batch No.>
228200

>  <Quantity>
10mM  * 50uL

>  <Pathway>
Apoptosis; Autophagy; Cell Cycle/DNA Damage; Epigenetics; Stem Cell/Wnt

>  <Synonyms>


>  <Formula>
C29H30ClN5O5

>  <Research_Area>
Cancer

>  <Clinical_Information>
No Development Reported

>  <SUPPLIER>
MedChemExpress

$$$$
Untitled Document
  ChemDraw09131709022D

 31 34  0  0  0  0  0  0  0  0999 V2000
    0.0755    0.3704    0.0000 C   0  0  0  0  0  0  0  0  0  0  0  0
    0.0755   -0.4547    0.0000 C   0  0  0  0  0  0  0  0  0  0  0  0
    0.7900   -0.8672    0.0000 N   0  0  0  0  0  0  0  0  0  0  0  0
    1.5045   -0.4547    0.0000 C   0  0  0  0  0  0  0  0  0  0  0  0
    1.5045    0.3704    0.0000 N   0  0  0  0  0  0  0  0  0  0  0  0
    0.7900    0.7829    0.0000 C   0  0  0  0  0  0  0  0  0  0  0  0
    0.7900    1.6050    0.0000 N   0  0  0  0  0  0  0  0  0  0  0  0
    0.0780    2.0161    0.0000 C   0  0  0  0  0  0  0  0  0  0  0  0
   -0.6340    1.6050    0.0000 C   0  0  0  0  0  0  0  0  0  0  0  0
    2.2164   -0.8658    0.0000 C   0  0  0  0  0  0  0  0  0  0  0  0
   -0.6365   -0.8658    0.0000 N   0  0  0  0  0  0  0  0  0  0  0  0
   -1.3181   -0.4010    0.0000 C   0  0  0  0  0  0  0  0  0  0  0  0
   -2.1065   -0.6442    0.0000 C   0  0  0  0  0  0  0  0  0  0  0  0
   -2.4079   -1.4122    0.0000 C   0  0  0  0  0  0  0  0  0  0  0  0
   -1.9954   -2.1267    0.0000 C   0  0  0  0  0  0  0  0  0  0  0  0
   -1.1796   -2.2496    0.0000 C   0  0  0  0  0  0  0  0  0  0  0  0
   -0.5748   -1.6885    0.0000 C   0  0  0  0  0  0  0  0  0  0  0  0
    2.2164   -1.6908    0.0000 C   0  0  0  0  0  0  0  0  0  0  0  0
    2.9309   -2.1033    0.0000 C   0  0  0  0  0  0  0  0  0  0  0  0
    3.6454   -1.6908    0.0000 C   0  0  0  0  0  0  0  0  0  0  0  0
    3.6454   -0.8658    0.0000 N   0  0  0  0  0  0  0  0  0  0  0  0
    2.9309   -0.4533    0.0000 C   0  0  0  0  0  0  0  0  0  0  0  0
   -3.2329   -1.4122    0.0000 C   0  0  0  0  0  0  0  0  0  0  0  0
   -3.6454   -2.1267    0.0000 C   0  0  0  0  0  0  0  0  0  0  0  0
   -3.2329   -2.8411    0.0000 C   0  0  0  0  0  0  0  0  0  0  0  0
   -2.4079   -2.8411    0.0000 C   0  0  0  0  0  0  0  0  0  0  0  0
   -1.3460    2.0161    0.0000 C   0  0  0  0  0  0  0  0  0  0  0  0
   -1.3460    2.8411    0.0000 O   0  0  0  0  0  0  0  0  0  0  0  0
   -2.0605    1.6036    0.0000 O   0  0  0  0  0  0  0  0  0  0  0  0
   -3.4894    1.6036    0.0000 C   0  0  0  0  0  0  0  0  0  0  0  0
   -2.7749    2.0161    0.0000 C   0  0  0  0  0  0  0  0  0  0  0  0
  1  2  2  0      
  2  3  1  0      
  3  4  2  0      
  4  5  1  0      
  5  6  2  0      
  6  1  1  0      
  6  7  1  0      
  7  8  1  0      
  8  9  1  0      
  4 10  1  0      
  2 11  1  0      
 11 12  1  0      
 12 13  1  0      
 13 14  1  0      
 14 15  2  0      
 15 16  1  0      
 16 17  1  0      
 17 11  1  0      
 10 18  2  0      
 18 19  1  0      
 19 20  2  0      
 20 21  1  0      
 21 22  2  0      
 22 10  1  0      
 14 23  1  0      
 23 24  2  0      
 24 25  1  0      
 25 26  2  0      
 26 15  1  0      
  9 27  1  0      
 27 28  2  0      
 27 29  1  0      
 29 31  1  0      
 30 31  1  0      
M  END

>  <RackCode>
HYCPK72336

>  <Cat. No.>
HY-15648C

>  <Product Name>
GSK-J5

>  <ROW>
G

>  <COLUMN>
9

>  <CAS No.>
1394854-51-3

>  <MWt>
417.50

>  <Target>
Histone Demethylase; Parasite

>  <Saltdate>


>  <Smiles>
O=C(OCC)CCNC1=NC(C2=CC=CN=C2)=NC(N3CCC(C=CC=C4)=C4CC3)=C1

>  <Solvent>
DMSO Solution

>  <Batch No.>
287842

>  <Quantity>
10mM  * 50uL

>  <Pathway>
Anti-infection; Epigenetics

>  <Synonyms>


>  <Formula>
C24H27N5O2

>  <Research_Area>
Cancer

>  <Clinical_Information>
No Development Reported

>  <SUPPLIER>
MedChemExpress

$$$$
Untitled Document
  ChemDraw05062010332D

 17 19  0  0  0  0  0  0  0  0999 V2000
   -0.1064    0.6199    0.0000 N   0  0  0  0  0  0  0  0  0  0  0  0
    0.5610    0.1350    0.0000 C   0  0  0  0  0  0  0  0  0  0  0  0
    1.3680    0.3065    0.0000 C   0  0  0  0  0  0  0  0  0  0  0  0
    1.9201   -0.3065    0.0000 C   0  0  0  0  0  0  0  0  0  0  0  0
    1.6651   -1.0912    0.0000 C   0  0  0  0  0  0  0  0  0  0  0  0
    0.8581   -1.2627    0.0000 C   0  0  0  0  0  0  0  0  0  0  0  0
    0.3061   -0.6496    0.0000 C   0  0  0  0  0  0  0  0  0  0  0  0
   -0.5189   -0.6496    0.0000 C   0  0  0  0  0  0  0  0  0  0  0  0
   -1.0709   -1.2627    0.0000 C   0  0  0  0  0  0  0  0  0  0  0  0
   -1.8779   -1.0912    0.0000 C   0  0  0  0  0  0  0  0  0  0  0  0
   -2.1328   -0.3065    0.0000 C   0  0  0  0  0  0  0  0  0  0  0  0
   -1.5808    0.3065    0.0000 C   0  0  0  0  0  0  0  0  0  0  0  0
   -0.7738    0.1350    0.0000 C   0  0  0  0  0  0  0  0  0  0  0  0
    1.6230    1.0912    0.0000 C   0  0  0  0  0  0  0  0  0  0  0  0
    1.0709    1.7043    0.0000 O   0  0  0  0  0  0  0  0  0  0  0  0
    2.4299    1.2627    0.0000 N   0  0  0  0  0  0  0  0  0  0  0  0
   -2.4299   -1.7043    0.0000 C   0  0  0  0  0  0  0  0  0  0  0  0
  1  2  1  0      
  2  3  1  0      
  3  4  1  0      
  4  5  1  0      
  5  6  1  0      
  6  7  1  0      
  2  7  2  0      
  7  8  1  0      
  8  9  1  0      
  9 10  2  0      
 10 11  1  0      
 11 12  2  0      
 12 13  1  0      
  8 13  2  0      
  1 13  1  0      
 14 15  2  0      
 14 16  1  0      
  3 14  1  0      
 10 17  1  0      
M  END

>  <RackCode>
HYCPK72336

>  <Cat. No.>
HY-136199

>  <Product Name>
SIRT1-IN-1

>  <ROW>
H

>  <COLUMN>
9

>  <CAS No.>
352554-02-0

>  <MWt>
228.29

>  <Target>
CMV; Sirtuin

>  <Saltdate>
Free Base

>  <Smiles>
O=C(C1C(NC2=C3C=C(C)C=C2)=C3CCC1)N

>  <Solvent>
DMSO Solution

>  <Batch No.>
66064

>  <Quantity>
10mM  * 50uL

>  <Pathway>
Anti-infection; Cell Cycle/DNA Damage; Epigenetics

>  <Synonyms>


>  <Formula>
C14H16N2O

>  <Research_Area>
Infection

>  <Clinical_Information>
No Development Reported

>  <SUPPLIER>
MedChemExpress

$$$$
Untitled Document
  ChemDraw03061917192D

 20 21  0  0  0  0  0  0  0  0999 V2000
    0.7145   -1.2375    0.0000 N   0  0  0  0  0  0  0  0  0  0  0  0
    0.0000   -0.8250    0.0000 C   0  0  0  0  0  0  0  0  0  0  0  0
    0.0000    0.0000    0.0000 O   0  0  0  0  0  0  0  0  0  0  0  0
   -0.7145   -1.2375    0.0000 N   0  0  0  0  0  0  0  0  0  0  0  0
   -1.4289   -0.8250    0.0000 C   0  0  0  0  0  0  0  0  0  0  0  0
   -1.4289    0.0000    0.0000 C   0  0  0  0  0  0  0  0  0  0  0  0
   -2.1434    0.4125    0.0000 C   0  0  0  0  0  0  0  0  0  0  0  0
   -2.8579    0.0000    0.0000 C   0  0  0  0  0  0  0  0  0  0  0  0
   -2.8579   -0.8250    0.0000 C   0  0  0  0  0  0  0  0  0  0  0  0
   -2.1434   -1.2375    0.0000 C   0  0  0  0  0  0  0  0  0  0  0  0
   -3.5724   -1.2375    0.0000 Cl  0  0  0  0  0  0  0  0  0  0  0  0
   -2.1434    1.2375    0.0000 Cl  0  0  0  0  0  0  0  0  0  0  0  0
    1.4289   -0.8250    0.0000 C   0  0  0  0  0  0  0  0  0  0  0  0
    2.1434   -1.2375    0.0000 C   0  0  0  0  0  0  0  0  0  0  0  0
    2.8579   -0.8250    0.0000 C   0  0  0  0  0  0  0  0  0  0  0  0
    2.8579    0.0000    0.0000 C   0  0  0  0  0  0  0  0  0  0  0  0
    2.1434    0.4125    0.0000 C   0  0  0  0  0  0  0  0  0  0  0  0
    1.4289    0.0000    0.0000 C   0  0  0  0  0  0  0  0  0  0  0  0
    2.1434    1.2375    0.0000 Cl  0  0  0  0  0  0  0  0  0  0  0  0
    3.5724   -1.2375    0.0000 Cl  0  0  0  0  0  0  0  0  0  0  0  0
  1  2  1  0      
  2  3  2  0      
  2  4  1  0      
  5  6  1  0      
  6  7  2  0      
  7  8  1  0      
  8  9  2  0      
  9 10  1  0      
  5 10  2  0      
  9 11  1  0      
  7 12  1  0      
  4  5  1  0      
 13 14  1  0      
 14 15  2  0      
 15 16  1  0      
 16 17  2  0      
 17 18  1  0      
 13 18  2  0      
 17 19  1  0      
 15 20  1  0      
  1 13  1  0      
M  END

>  <RackCode>
HYCPK72336

>  <Cat. No.>
HY-124822

>  <Product Name>
COH-SR4

>  <ROW>
I

>  <COLUMN>
9

>  <CAS No.>
73439-19-7

>  <MWt>
350.03

>  <Target>
AMPK

>  <Saltdate>


>  <Smiles>
O=C(NC1=CC(Cl)=CC(Cl)=C1)NC2=CC(Cl)=CC(Cl)=C2

>  <Solvent>
DMSO Solution

>  <Batch No.>
253415

>  <Quantity>
10mM  * 50uL

>  <Pathway>
Epigenetics; PI3K/Akt/mTOR

>  <Synonyms>


>  <Formula>
C13H8Cl4N2O

>  <Research_Area>
Cancer; Metabolic Disease

>  <Clinical_Information>
No Development Reported

>  <SUPPLIER>
MedChemExpress

$$$$
Untitled Document
  ChemDraw03281710392D

 36 40  0  0  0  0  0  0  0  0999 V2000
   -0.7150    1.0490    0.0000 C   0  0  0  0  0  0  0  0  0  0  0  0
   -1.1275    1.7634    0.0000 O   0  0  0  0  0  0  0  0  0  0  0  0
    2.6491    1.0490    0.0000 N   0  0  0  0  0  0  0  0  0  0  0  0
    2.1642    1.7164    0.0000 N   0  0  0  0  0  0  0  0  0  0  0  0
    1.3795    1.4615    0.0000 C   0  0  0  0  0  0  0  0  0  0  0  0
    1.3795    0.6365    0.0000 C   0  0  0  0  0  0  0  0  0  0  0  0
    2.1642    0.3815    0.0000 C   0  0  0  0  0  0  0  0  0  0  0  0
    0.1100    1.0490    0.0000 N   0  0  0  0  0  0  0  0  0  0  0  0
    0.5949    1.7164    0.0000 C   0  0  0  0  0  0  0  0  0  0  0  0
    0.5949    0.3815    0.0000 C   0  0  0  0  0  0  0  0  0  0  0  0
   -0.0182    2.2684    0.0000 C   0  0  0  0  0  0  0  0  0  0  0  0
    0.7664    2.5234    0.0000 C   0  0  0  0  0  0  0  0  0  0  0  0
    2.4191   -0.4031    0.0000 N   0  0  0  0  0  0  0  0  0  0  0  0
    4.2880   -1.5308    0.0000 C   0  0  0  0  0  0  0  0  0  0  0  0
    3.4810   -1.3592    0.0000 N   0  0  0  0  0  0  0  0  0  0  0  0
    3.2261   -0.5746    0.0000 C   0  0  0  0  0  0  0  0  0  0  0  0
    3.7781    0.0385    0.0000 C   0  0  0  0  0  0  0  0  0  0  0  0
    4.5851   -0.1330    0.0000 C   0  0  0  0  0  0  0  0  0  0  0  0
    4.8400   -0.9177    0.0000 N   0  0  0  0  0  0  0  0  0  0  0  0
    4.5429   -2.3154    0.0000 C   0  0  0  0  0  0  0  0  0  0  0  0
    3.5232    0.8231    0.0000 F   0  0  0  0  0  0  0  0  0  0  0  0
   -1.1275    0.3345    0.0000 N   0  0  0  0  0  0  0  0  0  0  0  0
   -0.7150   -0.3800    0.0000 C   0  0  0  0  0  0  0  0  0  0  0  0
   -1.1275   -1.0944    0.0000 C   0  0  0  0  0  0  0  0  0  0  0  0
   -1.9525   -1.0944    0.0000 N   0  0  0  0  0  0  0  0  0  0  0  0
   -2.3650   -0.3800    0.0000 C   0  0  0  0  0  0  0  0  0  0  0  0
   -1.9525    0.3345    0.0000 C   0  0  0  0  0  0  0  0  0  0  0  0
   -2.3650   -1.8089    0.0000 C   0  0  0  0  0  0  0  0  0  0  0  0
   -4.4275   -1.0944    0.0000 C   0  0  0  0  0  0  0  0  0  0  0  0
   -3.6025   -1.0944    0.0000 C   0  0  0  0  0  0  0  0  0  0  0  0
   -3.1900   -1.8089    0.0000 C   0  0  0  0  0  0  0  0  0  0  0  0
   -3.6025   -2.5234    0.0000 C   0  0  0  0  0  0  0  0  0  0  0  0
   -4.4275   -2.5234    0.0000 C   0  0  0  0  0  0  0  0  0  0  0  0
   -4.8400   -1.8089    0.0000 O   0  0  0  0  0  0  0  0  0  0  0  0
   -3.1900   -0.3800    0.0000 C   0  0  0  0  0  0  0  0  0  0  0  0
    0.1100   -0.3800    0.0000 C   0  0  0  0  0  0  0  0  0  0  0  0
  1  2  2  0      
  3  4  1  0      
  4  5  1  0      
  5  6  2  0      
  6  7  1  0      
  3  7  2  0      
  8  9  1  0      
  8 10  1  0      
  5  9  1  0      
  6 10  1  0      
  9 11  1  0      
  9 12  1  0      
 14 15  1  0      
 15 16  2  0      
 16 17  1  0      
 17 18  2  0      
 18 19  1  0      
 14 19  2  0      
 14 20  1  0      
 17 21  1  0      
 13 16  1  0      
  7 13  1  0      
  1  8  1  0      
 22 23  1  0      
 23 24  1  0      
 24 25  1  0      
 25 26  1  0      
 26 27  1  0      
 22 27  1  0      
 29 30  1  0      
 30 31  1  0      
 31 32  1  0      
 32 33  1  0      
 33 34  1  0      
 29 34  1  0      
 28 31  1  0      
 25 28  1  0      
 26 35  1  6      
 23 36  1  1      
  1 22  1  0      
M  END

>  <RackCode>
HYCPK72336

>  <Cat. No.>
HY-16903

>  <Product Name>
PKC-IN-1

>  <ROW>
J

>  <COLUMN>
9

>  <CAS No.>
1046787-18-1

>  <MWt>
500.61

>  <Target>
PKC

>  <Saltdate>
Free Base

>  <Smiles>
O=C(N1[C@@H](C)CN(CC2CCOCC2)[C@H](C)C1)N(C3)C(C)(C)C4=C3C(NC5=NC(C)=NC=C5F)=NN4

>  <Solvent>
DMSO Solution

>  <Batch No.>
24004

>  <Quantity>
10mM  * 50uL

>  <Pathway>
Epigenetics; TGF-beta/Smad

>  <Synonyms>


>  <Formula>
C25H37FN8O2

>  <Research_Area>
Inflammation/Immunology

>  <Clinical_Information>
No Development Reported

>  <SUPPLIER>
MedChemExpress

$$$$
Untitled Document
  ChemDraw03141610122D

 92101  0  0  0  0  0  0  0  0999 V2000
    0.2780   -2.0465    0.0000 C   0  0  0  0  0  0  0  0  0  0  0  0
    0.9928   -1.6365    0.0000 O   0  0  0  0  0  0  0  0  0  0  0  0
    0.2780   -2.8653    0.0000 O   0  0  0  0  0  0  0  0  0  0  0  0
   -1.2339   -1.2023    0.0000 C   0  0  0  0  0  0  0  0  0  0  0  0
    1.7162   -2.0465    0.0000 C   0  0  0  0  0  0  0  0  0  0  0  0
   -1.9493   -0.7834    0.0000 C   0  0  0  0  0  0  0  0  0  0  0  0
   -1.2339   -2.0255    0.0000 C   0  0  0  0  0  0  0  0  0  0  0  0
   -0.5208   -0.7834    0.0000 C   0  0  0  0  0  0  0  0  0  0  0  0
    2.4267   -1.6365    0.0000 C   0  0  0  0  0  0  0  0  0  0  0  0
    1.7162   -2.8653    0.0000 O   0  0  0  0  0  0  0  0  0  0  0  0
   -2.6661   -1.2023    0.0000 C   0  0  0  0  0  0  0  0  0  0  0  0
   -1.9493    0.0398    0.0000 C   0  0  0  0  0  0  0  0  0  0  0  0
   -0.5178   -2.4312    0.0000 O   0  0  0  0  0  0  0  0  0  0  0  0
   -1.9493   -2.4371    0.0000 C   0  0  0  0  0  0  0  0  0  0  0  0
   -0.5208    0.0398    0.0000 C   0  0  0  0  0  0  0  0  0  0  0  0
    2.4281   -0.0037    0.0000 O   0  0  0  0  0  0  0  0  0  0  0  0
    3.1458   -2.0465    0.0000 C   0  0  0  0  0  0  0  0  0  0  0  0
    2.4267   -3.2740    0.0000 C   0  0  0  0  0  0  0  0  0  0  0  0
   -2.6661   -2.0255    0.0000 C   0  0  0  0  0  0  0  0  0  0  0  0
   -3.3815   -0.7834    0.0000 C   0  0  0  0  0  0  0  0  0  0  0  0
   -1.2339    0.4515    0.0000 C   0  0  0  0  0  0  0  0  0  0  0  0
    3.1458    0.4019    0.0000 C   0  0  0  0  0  0  0  0  0  0  0  0
    3.8649   -1.6365    0.0000 O   0  0  0  0  0  0  0  0  0  0  0  0
    3.1458   -2.8653    0.0000 C   0  0  0  0  0  0  0  0  0  0  0  0
   -2.6661   -2.8440    0.0000 C   0  0  0  0  0  0  0  0  0  0  0  0
   -3.3815   -2.4371    0.0000 C   0  0  0  0  0  0  0  0  0  0  0  0
   -4.0970   -1.2023    0.0000 C   0  0  0  0  0  0  0  0  0  0  0  0
   -0.7069    1.0822    0.0000 C   0  0  0  0  0  0  0  0  0  0  0  0
   -1.7709    1.0822    0.0000 C   0  0  0  0  0  0  0  0  0  0  0  0
    3.8620   -0.0037    0.0000 C   0  0  0  0  0  0  0  0  0  0  0  0
    3.1458    1.2206    0.0000 O   0  0  0  0  0  0  0  0  0  0  0  0
    3.8649   -3.2740    0.0000 O   0  0  0  0  0  0  0  0  0  0  0  0
   -3.3815   -1.6185    0.0000 C   0  0  0  0  0  0  0  0  0  0  0  0
   -4.0970   -2.0255    0.0000 C   0  0  0  0  0  0  0  0  0  0  0  0
   -3.3815   -3.2647    0.0000 C   0  0  0  0  0  0  0  0  0  0  0  0
    3.8620   -0.8224    0.0000 O   0  0  0  0  0  0  0  0  0  0  0  0
    4.5797    0.4019    0.0000 C   0  0  0  0  0  0  0  0  0  0  0  0
    3.8620    1.6379    0.0000 C   0  0  0  0  0  0  0  0  0  0  0  0
   -4.8168   -2.4371    0.0000 C   0  0  0  0  0  0  0  0  0  0  0  0
   -4.0970   -3.6719    0.0000 C   0  0  0  0  0  0  0  0  0  0  0  0
    5.2989   -0.0037    0.0000 O   0  0  0  0  0  0  0  0  0  0  0  0
    4.5797    1.2206    0.0000 C   0  0  0  0  0  0  0  0  0  0  0  0
    3.8620    2.4523    0.0000 C   0  0  0  0  0  0  0  0  0  0  0  0
   -4.8168   -1.6185    0.0000 C   0  0  0  0  0  0  0  0  0  0  0  0
   -4.8168   -3.2647    0.0000 C   0  0  0  0  0  0  0  0  0  0  0  0
   -5.5322   -2.0255    0.0000 C   0  0  0  0  0  0  0  0  0  0  0  0
    5.2989    1.6379    0.0000 O   0  0  0  0  0  0  0  0  0  0  0  0
   -5.5322   -3.6719    0.0000 C   0  0  0  0  0  0  0  0  0  0  0  0
   -6.2476   -2.4371    0.0000 C   0  0  0  0  0  0  0  0  0  0  0  0
    6.0180    1.2206    0.0000 C   0  0  0  0  0  0  0  0  0  0  0  0
   -6.2769   -4.4153    0.0000 C   0  0  0  0  0  0  0  0  0  0  0  0
   -5.5322   -4.4950    0.0000 C   0  0  0  0  0  0  0  0  0  0  0  0
   -6.2476   -3.2647    0.0000 C   0  0  0  0  0  0  0  0  0  0  0  0
   -6.9601   -2.0285    0.0000 O   0  0  0  0  0  0  0  0  0  0  0  0
    6.7298    1.6379    0.0000 C   0  0  0  0  0  0  0  0  0  0  0  0
    6.0180    0.4019    0.0000 O   0  0  0  0  0  0  0  0  0  0  0  0
   -7.1067   -4.4153    0.0000 O   0  0  0  0  0  0  0  0  0  0  0  0
   -6.2447   -4.9080    0.0000 O   0  0  0  0  0  0  0  0  0  0  0  0
   -6.9601   -3.6705    0.0000 O   0  0  0  0  0  0  0  0  0  0  0  0
    6.7298    2.4523    0.0000 O   0  0  0  0  0  0  0  0  0  0  0  0
    7.4476    1.2206    0.0000 C   0  0  0  0  0  0  0  0  0  0  0  0
    6.7298   -0.0037    0.0000 C   0  0  0  0  0  0  0  0  0  0  0  0
   -7.6769   -3.2647    0.0000 C   0  0  0  0  0  0  0  0  0  0  0  0
    8.1710    1.6379    0.0000 O   0  0  0  0  0  0  0  0  0  0  0  0
    7.4476    0.4019    0.0000 C   0  0  0  0  0  0  0  0  0  0  0  0
   -7.6769   -2.4417    0.0000 O   0  0  0  0  0  0  0  0  0  0  0  0
   -8.3980   -3.6705    0.0000 C   0  0  0  0  0  0  0  0  0  0  0  0
    8.1710    2.6340    0.0000 C   0  0  0  0  0  0  0  0  0  0  0  0
    8.1710   -0.0037    0.0000 O   0  0  0  0  0  0  0  0  0  0  0  0
   -8.3980   -2.0330    0.0000 C   0  0  0  0  0  0  0  0  0  0  0  0
   -8.3980   -4.4892    0.0000 O   0  0  0  0  0  0  0  0  0  0  0  0
   -9.1192   -3.2647    0.0000 C   0  0  0  0  0  0  0  0  0  0  0  0
    8.9431    2.8741    0.0000 C   0  0  0  0  0  0  0  0  0  0  0  0
    7.6592    3.3099    0.0000 O   0  0  0  0  0  0  0  0  0  0  0  0
   -8.3980   -1.2144    0.0000 C   0  0  0  0  0  0  0  0  0  0  0  0
   -9.1192   -2.4417    0.0000 C   0  0  0  0  0  0  0  0  0  0  0  0
   -9.8375   -3.6705    0.0000 O   0  0  0  0  0  0  0  0  0  0  0  0
    9.6034    2.3785    0.0000 O   0  0  0  0  0  0  0  0  0  0  0  0
    8.9431    3.6974    0.0000 C   0  0  0  0  0  0  0  0  0  0  0  0
    8.1710    3.9604    0.0000 C   0  0  0  0  0  0  0  0  0  0  0  0
   -9.1192   -0.8044    0.0000 O   0  0  0  0  0  0  0  0  0  0  0  0
   -9.8375   -2.0330    0.0000 O   0  0  0  0  0  0  0  0  0  0  0  0
    9.1141    4.4937    0.0000 C   0  0  0  0  0  0  0  0  0  0  0  0
    9.7642    3.6161    0.0000 O   0  0  0  0  0  0  0  0  0  0  0  0
    9.8375    4.9080    0.0000 O   0  0  0  0  0  0  0  0  0  0  0  0
   -4.0970   -2.8440    0.0000 H   0  0  0  0  0  0  0  0  0  0  0  0
   -1.9493   -1.6064    0.0000 H   0  0  0  0  0  0  0  0  0  0  0  0
   -4.8168   -4.2652    0.0000 H   0  0  0  0  0  0  0  0  0  0  0  0
    2.4281    0.8149    0.0000 H   0  0  0  0  0  0  0  0  0  0  0  0
    6.0180    2.0436    0.0000 H   0  0  0  0  0  0  0  0  0  0  0  0
    8.6968    2.0075    0.0000 H   0  0  0  0  0  0  0  0  0  0  0  0
   -7.6769   -4.0835    0.0000 H   0  0  0  0  0  0  0  0  0  0  0  0
  1  2  1  0      
  1  3  2  0      
  4  1  1  1      
  5  2  1  1      
  4  6  1  0      
  4  7  1  0      
  4  8  1  0      
  5  9  1  0      
  5 10  1  0      
  6 11  1  0      
  6 12  1  0      
  6 87  1  1      
  7 13  1  6      
  7 14  1  0      
  8 15  1  0      
  9 16  1  6      
  9 17  1  0      
 10 18  1  0      
 11 19  1  0      
 11 20  2  0      
 12 21  1  0      
 14 19  1  0      
 15 21  1  0      
 16 22  1  0      
 17 23  1  1      
 17 24  1  0      
 18 24  1  0      
 19 25  1  6      
 19 26  1  0      
 20 27  1  0      
 21 28  1  0      
 21 29  1  0      
 22 30  1  0      
 22 31  1  0      
 22 89  1  1      
 24 32  1  1      
 26 33  1  1      
 26 34  1  0      
 26 35  1  0      
 27 34  1  0      
 30 36  1  1      
 30 37  1  0      
 31 38  1  0      
 34 39  1  0      
 34 86  1  6      
 35 40  1  0      
 37 41  1  1      
 37 42  1  0      
 38 42  1  0      
 38 43  1  1      
 39 44  1  1      
 39 45  1  0      
 39 46  1  0      
 40 45  1  0      
 42 47  1  6      
 45 48  1  0      
 45 88  1  6      
 46 49  1  0      
 47 50  1  0      
 48 51  1  0      
 48 52  1  0      
 48 53  1  0      
 49 53  1  0      
 49 54  1  1      
 50 55  1  0      
 50 56  1  0      
 50 90  1  6      
 51 57  1  0      
 52 58  1  0      
 53 59  1  1      
 55 60  1  6      
 55 61  1  0      
 56 62  1  0      
 59 63  1  0      
 61 64  1  1      
 61 65  1  0      
 62 65  1  0      
 63 66  1  0      
 63 67  1  0      
 63 92  1  6      
 64 68  1  0      
 65 69  1  6      
 66 70  1  0      
 67 71  1  6      
 67 72  1  0      
 68 73  1  0      
 68 74  1  0      
 68 91  1  1      
 70 75  1  1      
 70 76  1  0      
 72 76  1  0      
 72 77  1  1      
 73 78  1  1      
 73 79  1  0      
 74 80  1  0      
 75 81  1  0      
 76 82  1  6      
 79 80  1  0      
 79 83  1  6      
 79 84  1  0      
 83 85  1  0      
M  END

>  <RackCode>
HYCPK72336

>  <Cat. No.>
HY-N1411

>  <Product Name>
Platycodin D

>  <ROW>
K

>  <COLUMN>
9

>  <CAS No.>
58479-68-8

>  <MWt>
1225.32

>  <Target>
AMPK; Wnt

>  <Saltdate>
Free Base

>  <Smiles>
O=C([C@]1(CCC(C)(C)C2)[C@]2([H])C3=CC[C@@]4([H])[C@@](C)(CC[C@]5([H])[C@@]4(C[C@H](O)[C@H](O[C@]([C@@H]([C@@H](O)[C@@H]6O)O)([H])O[C@@H]6CO)C5(CO)CO)C)[C@]3(C)C[C@H]1O)O[C@H](OC[C@H](O)[C@@H]7O)[C@@H]7O[C@@](O[C@@H](C)[C@H](O[C@@](OC[C@@H](O)[C@@H]8O[C@@](OC[C@]9(O)CO)([H])[C@@H]9O)([H])[C@@H]8O)[C@H]%10O)([H])[C@@H]%10O

>  <Solvent>
DMSO Solution

>  <Batch No.>
158998

>  <Quantity>
10mM  * 50uL

>  <Pathway>
Epigenetics; PI3K/Akt/mTOR; Stem Cell/Wnt

>  <Synonyms>


>  <Formula>
C57H92O28

>  <Research_Area>
Metabolic Disease

>  <Clinical_Information>
No Development Reported

>  <SUPPLIER>
MedChemExpress

$$$$
Untitled Document
  ChemDraw09051716452D

 38 42  0  0  0  0  0  0  0  0999 V2000
   -0.4206   -3.6684    0.0000 N   0  0  0  0  0  0  0  0  0  0  0  0
    0.3640   -3.4135    0.0000 C   0  0  0  0  0  0  0  0  0  0  0  0
    0.3640   -2.5885    0.0000 C   0  0  0  0  0  0  0  0  0  0  0  0
   -0.4206   -2.3336    0.0000 C   0  0  0  0  0  0  0  0  0  0  0  0
   -0.9055   -3.0010    0.0000 C   0  0  0  0  0  0  0  0  0  0  0  0
    1.0315   -3.8984    0.0000 O   0  0  0  0  0  0  0  0  0  0  0  0
   -1.7305   -3.0010    0.0000 O   0  0  0  0  0  0  0  0  0  0  0  0
   -0.6755   -0.2141    0.0000 N   0  0  0  0  0  0  0  0  0  0  0  0
   -0.1906   -0.8815    0.0000 C   0  0  0  0  0  0  0  0  0  0  0  0
   -0.6755   -1.5489    0.0000 C   0  0  0  0  0  0  0  0  0  0  0  0
   -1.4601   -1.2940    0.0000 C   0  0  0  0  0  0  0  0  0  0  0  0
   -2.1746   -1.7065    0.0000 C   0  0  0  0  0  0  0  0  0  0  0  0
   -2.8891   -1.2940    0.0000 C   0  0  0  0  0  0  0  0  0  0  0  0
   -2.8891   -0.4690    0.0000 C   0  0  0  0  0  0  0  0  0  0  0  0
   -2.1746   -0.0565    0.0000 C   0  0  0  0  0  0  0  0  0  0  0  0
   -1.4601   -0.4690    0.0000 C   0  0  0  0  0  0  0  0  0  0  0  0
    1.2317   -1.9581    0.0000 C   0  0  0  0  0  0  0  0  0  0  0  0
    1.9854   -2.2937    0.0000 C   0  0  0  0  0  0  0  0  0  0  0  0
    2.6528   -1.8087    0.0000 C   0  0  0  0  0  0  0  0  0  0  0  0
    2.5666   -0.9883    0.0000 C   0  0  0  0  0  0  0  0  0  0  0  0
    1.8129   -0.6527    0.0000 C   0  0  0  0  0  0  0  0  0  0  0  0
    1.1455   -1.1376    0.0000 C   0  0  0  0  0  0  0  0  0  0  0  0
    2.0716   -3.1141    0.0000 C   0  0  0  0  0  0  0  0  0  0  0  0
    2.8253   -3.4497    0.0000 F   0  0  0  0  0  0  0  0  0  0  0  0
    2.1579   -3.9346    0.0000 F   0  0  0  0  0  0  0  0  0  0  0  0
    1.4042   -3.5991    0.0000 F   0  0  0  0  0  0  0  0  0  0  0  0
    1.7267    0.1678    0.0000 N   0  0  0  0  0  0  0  0  0  0  0  0
    2.3941    0.6527    0.0000 C   0  0  0  0  0  0  0  0  0  0  0  0
    2.3079    1.4732    0.0000 C   0  0  0  0  0  0  0  0  0  0  0  0
    1.5542    1.8087    0.0000 N   0  0  0  0  0  0  0  0  0  0  0  0
    0.8868    1.3238    0.0000 C   0  0  0  0  0  0  0  0  0  0  0  0
    0.9730    0.5033    0.0000 C   0  0  0  0  0  0  0  0  0  0  0  0
    1.4680    2.6292    0.0000 C   0  0  0  0  0  0  0  0  0  0  0  0
    2.1354    3.1141    0.0000 C   0  0  0  0  0  0  0  0  0  0  0  0
    2.8891    2.7786    0.0000 C   0  0  0  0  0  0  0  0  0  0  0  0
    0.7143    2.9648    0.0000 O   0  0  0  0  0  0  0  0  0  0  0  0
    2.0492    3.9346    0.0000 C   0  0  0  0  0  0  0  0  0  0  0  0
    2.8028    3.5991    0.0000 O   0  0  0  0  0  0  0  0  0  0  0  0
  1  2  1  0      
  2  3  1  0      
  3  4  2  0      
  4  5  1  0      
  1  5  1  0      
  2  6  2  0      
  5  7  2  0      
  8  9  1  0      
  9 10  2  0      
 10 11  1  0      
 11 12  1  0      
 12 13  2  0      
 13 14  1  0      
 14 15  2  0      
 15 16  1  0      
  8 16  1  0      
 11 16  2  0      
  4 10  1  0      
 17 18  1  0      
 18 19  2  0      
 19 20  1  0      
 20 21  2  0      
 21 22  1  0      
 17 22  2  0      
 23 24  1  0      
 23 25  1  0      
 23 26  1  0      
 18 23  1  0      
 27 28  1  0      
 28 29  1  0      
 29 30  1  0      
 30 31  1  0      
 31 32  1  0      
 27 32  1  0      
 33 34  1  0      
 34 35  1  0      
 33 36  2  0      
 34 37  1  0      
 34 38  1  0      
 30 33  1  0      
 21 27  1  0      
  3 17  1  0      
M  END

>  <RackCode>
HYCPK72336

>  <Cat. No.>
HY-108264

>  <Product Name>
TCS 21311

>  <ROW>
L

>  <COLUMN>
9

>  <CAS No.>
1260181-14-3

>  <MWt>
526.51

>  <Target>
GSK-3; JAK; PKC

>  <Saltdate>
Free Base

>  <Smiles>
O=C(C(C1=CC(N2CCN(C(C(C)(O)C)=O)CC2)=CC=C1C(F)(F)F)=C3C4=CNC5=C4C=CC=C5)NC3=O

>  <Solvent>
DMSO Solution

>  <Batch No.>
245145

>  <Quantity>
10mM  * 50uL

>  <Pathway>
Epigenetics; JAK/STAT Signaling; PI3K/Akt/mTOR; Protein Tyrosine Kinase/RTK; Stem Cell/Wnt; TGF-beta/Smad

>  <Synonyms>
NIBR3049

>  <Formula>
C27H25F3N4O4

>  <Research_Area>
Cancer

>  <Clinical_Information>
No Development Reported

>  <SUPPLIER>
MedChemExpress

$$$$
Untitled Document
  ChemDraw04251708582D

 27 30  0  0  0  0  0  0  0  0999 V2000
    0.3981   -0.6993    0.0000 C   0  0  0  0  0  0  0  0  0  0  0  0
   -0.1048   -1.3533    0.0000 C   0  0  0  0  0  0  0  0  0  0  0  0
    0.2102   -2.1159    0.0000 C   0  0  0  0  0  0  0  0  0  0  0  0
    1.0281   -2.2243    0.0000 C   0  0  0  0  0  0  0  0  0  0  0  0
    1.5309   -1.5703    0.0000 C   0  0  0  0  0  0  0  0  0  0  0  0
    1.2159   -0.8078    0.0000 C   0  0  0  0  0  0  0  0  0  0  0  0
    1.3431   -2.9868    0.0000 Cl  0  0  0  0  0  0  0  0  0  0  0  0
    0.0831    0.0632    0.0000 C   0  0  0  0  0  0  0  0  0  0  0  0
   -0.7347    0.1717    0.0000 C   0  0  0  0  0  0  0  0  0  0  0  0
    0.6779    0.6350    0.0000 N   0  0  0  0  0  0  0  0  0  0  0  0
   -1.1598    0.8788    0.0000 C   0  0  0  0  0  0  0  0  0  0  0  0
   -1.9636    0.6929    0.0000 S   0  0  0  0  0  0  0  0  0  0  0  0
   -2.0354   -0.1289    0.0000 C   0  0  0  0  0  0  0  0  0  0  0  0
   -1.2758   -0.4511    0.0000 C   0  0  0  0  0  0  0  0  0  0  0  0
   -2.7423   -0.5540    0.0000 C   0  0  0  0  0  0  0  0  0  0  0  0
   -1.0900   -1.2549    0.0000 C   0  0  0  0  0  0  0  0  0  0  0  0
   -0.8721    1.6519    0.0000 N   0  0  0  0  0  0  0  0  0  0  0  0
   -0.0882    1.9090    0.0000 C   0  0  0  0  0  0  0  0  0  0  0  0
    0.6016    1.4565    0.0000 C   0  0  0  0  0  0  0  0  0  0  0  0
    1.3087    1.8815    0.0000 C   0  0  0  0  0  0  0  0  0  0  0  0
   -0.0905    2.7340    0.0000 N   0  0  0  0  0  0  0  0  0  0  0  0
   -0.8758    2.9868    0.0000 N   0  0  0  0  0  0  0  0  0  0  0  0
   -1.3589    2.3181    0.0000 C   0  0  0  0  0  0  0  0  0  0  0  0
   -2.1839    2.3158    0.0000 C   0  0  0  0  0  0  0  0  0  0  0  0
    2.0303    1.4819    0.0000 C   0  0  0  0  0  0  0  0  0  0  0  0
    2.0303    0.6598    0.0000 O   0  0  0  0  0  0  0  0  0  0  0  0
    2.7423    1.8930    0.0000 O   0  0  0  0  0  0  0  0  0  0  0  0
  1  2  2  0      
  2  3  1  0      
  3  4  2  0      
  4  5  1  0      
  5  6  2  0      
  6  1  1  0      
  4  7  1  0      
  1  8  1  0      
  8  9  1  0      
  8 10  2  0      
  9 11  2  0      
 11 12  1  0      
 12 13  1  0      
 13 14  2  0      
 14  9  1  0      
 13 15  1  0      
 14 16  1  0      
 11 17  1  0      
 17 18  1  0      
 19 20  1  6      
 18 21  2  0      
 18 19  1  0      
 19 10  1  0      
 21 22  1  0      
 22 23  2  0      
 23 17  1  0      
 23 24  1  0      
 20 25  1  0      
 25 26  2  0      
 25 27  1  0      
M  END

>  <RackCode>
HYCPK72336

>  <Cat. No.>
HY-78695

>  <Product Name>
JQ-1 (carboxylic acid)

>  <ROW>
M

>  <COLUMN>
9

>  <CAS No.>
202592-23-2

>  <MWt>
400.88

>  <Target>
Epigenetic Reader Domain; PD-1/PD-L1

>  <Saltdate>
Free Acid

>  <Smiles>
ClC1=CC=C(C(C2=C(N3C4=NN=C3C)SC(C)=C2C)=N[C@H]4CC(O)=O)C=C1

>  <Solvent>
DMSO Solution

>  <Batch No.>
18967

>  <Quantity>
10mM  * 50uL

>  <Pathway>
Epigenetics; Immunology/Inflammation

>  <Synonyms>


>  <Formula>
C19H17ClN4O2S

>  <Research_Area>
Cancer

>  <Clinical_Information>
No Development Reported

>  <SUPPLIER>
MedChemExpress

$$$$
Untitled Document
  ChemDraw09121710462D

 33 36  0  0  0  0  0  0  0  0999 V2000
    4.5370   -2.1657    0.0000 C   0  0  0  0  0  0  0  0  0  0  0  0
    3.7524   -1.9108    0.0000 C   0  0  0  0  0  0  0  0  0  0  0  0
    3.1395   -2.4628    0.0000 C   0  0  0  0  0  0  0  0  0  0  0  0
    2.3549   -2.2079    0.0000 C   0  0  0  0  0  0  0  0  0  0  0  0
    2.1833   -1.4007    0.0000 C   0  0  0  0  0  0  0  0  0  0  0  0
    2.7964   -0.8487    0.0000 C   0  0  0  0  0  0  0  0  0  0  0  0
    3.5810   -1.1035    0.0000 C   0  0  0  0  0  0  0  0  0  0  0  0
    4.7087   -2.9726    0.0000 O   0  0  0  0  0  0  0  0  0  0  0  0
    5.1502   -1.6137    0.0000 O   0  0  0  0  0  0  0  0  0  0  0  0
    1.3987   -1.1458    0.0000 N   0  0  0  0  0  0  0  0  0  0  0  0
    0.7312   -1.6309    0.0000 N   0  0  0  0  0  0  0  0  0  0  0  0
    0.0638   -1.1458    0.0000 C   0  0  0  0  0  0  0  0  0  0  0  0
    0.3187   -0.3612    0.0000 C   0  0  0  0  0  0  0  0  0  0  0  0
    1.1437   -0.3612    0.0000 C   0  0  0  0  0  0  0  0  0  0  0  0
    1.6286    0.3062    0.0000 O   0  0  0  0  0  0  0  0  0  0  0  0
   -0.7208   -1.4007    0.0000 C   0  0  0  0  0  0  0  0  0  0  0  0
   -0.1663    0.3062    0.0000 C   0  0  0  0  0  0  0  0  0  0  0  0
   -1.5386    0.8331    0.0000 O   0  0  0  0  0  0  0  0  0  0  0  0
   -0.9866    0.2201    0.0000 C   0  0  0  0  0  0  0  0  0  0  0  0
   -1.3991   -0.4944    0.0000 C   0  0  0  0  0  0  0  0  0  0  0  0
   -2.2060   -0.3230    0.0000 C   0  0  0  0  0  0  0  0  0  0  0  0
   -2.2924    0.4976    0.0000 C   0  0  0  0  0  0  0  0  0  0  0  0
   -3.0069    0.9101    0.0000 C   0  0  0  0  0  0  0  0  0  0  0  0
   -3.0069    1.7351    0.0000 C   0  0  0  0  0  0  0  0  0  0  0  0
   -3.7214    2.1476    0.0000 C   0  0  0  0  0  0  0  0  0  0  0  0
   -4.4357    1.7351    0.0000 C   0  0  0  0  0  0  0  0  0  0  0  0
   -4.4357    0.9101    0.0000 C   0  0  0  0  0  0  0  0  0  0  0  0
   -3.7214    0.4976    0.0000 C   0  0  0  0  0  0  0  0  0  0  0  0
   -5.1502    0.4976    0.0000 C   0  0  0  0  0  0  0  0  0  0  0  0
   -5.1502    2.1476    0.0000 C   0  0  0  0  0  0  0  0  0  0  0  0
   -2.2924    2.1476    0.0000 N   0  3  0  0  0  0  0  0  0  0  0  0
   -1.5779    1.7351    0.0000 O   0  0  0  0  0  0  0  0  0  0  0  0
   -2.2924    2.9726    0.0000 O   0  5  0  0  0  0  0  0  0  0  0  0
  1  2  1  0      
  2  3  1  0      
  3  4  2  0      
  4  5  1  0      
  5  6  2  0      
  6  7  1  0      
  2  7  2  0      
  1  8  2  0      
  1  9  1  0      
 10 11  1  0      
 11 12  2  0      
 12 13  1  0      
 13 14  1  0      
 10 14  1  0      
 14 15  2  0      
 12 16  1  0      
 18 19  1  0      
 19 20  2  0      
 20 21  1  0      
 21 22  2  0      
 18 22  1  0      
 23 24  1  0      
 24 25  2  0      
 25 26  1  0      
 26 27  2  0      
 27 28  1  0      
 23 28  2  0      
 27 29  1  0      
 26 30  1  0      
 22 23  1  0      
 17 19  1  0      
 13 17  2  0      
  5 10  1  0      
 24 31  1  0      
 31 32  2  0      
 31 33  1  0      
M  CHG  2  31   1  33  -1
M  END

>  <RackCode>
HYCPK72336

>  <Cat. No.>
HY-13823

>  <Product Name>
C646

>  <ROW>
N

>  <COLUMN>
9

>  <CAS No.>
328968-36-1

>  <MWt>
445.42

>  <Target>
Apoptosis; Autophagy; Epigenetic Reader Domain; Histone Acetyltransferase

>  <Saltdate>
Free Acid

>  <Smiles>
O=C(O)C1=CC=C(N2N=C(C)/C(C2=O)=C\C3=CC=C(C4=CC(C)=C(C)C=C4[N+]([O-])=O)O3)C=C1

>  <Solvent>
DMSO Solution

>  <Batch No.>
15270

>  <Quantity>
10mM  * 50uL

>  <Pathway>
Apoptosis; Autophagy; Epigenetics

>  <Synonyms>


>  <Formula>
C24H19N3O6

>  <Research_Area>
Cancer

>  <Clinical_Information>
No Development Reported

>  <SUPPLIER>
MedChemExpress

$$$$
Untitled Document
  ChemDraw08042014312D

 31 33  0  0  0  0  0  0  0  0999 V2000
    0.0872   -3.0883    0.0000 N   0  3  0  0  0  0  0  0  0  0  0  0
   -0.6273   -3.5008    0.0000 O   0  5  0  0  0  0  0  0  0  0  0  0
    0.0872   -2.2633    0.0000 O   0  0  0  0  0  0  0  0  0  0  0  0
    0.8017   -3.5008    0.0000 O   0  5  0  0  0  0  0  0  0  0  0  0
   -0.2857    1.7739    0.0000 C   0  0  0  0  0  0  0  0  0  0  0  0
   -0.2857    0.9464    0.0000 C   0  0  0  0  0  0  0  0  0  0  0  0
    0.4288    0.5359    0.0000 C   0  0  0  0  0  0  0  0  0  0  0  0
    1.1433    0.9464    0.0000 C   0  0  0  0  0  0  0  0  0  0  0  0
    1.8577    0.5359    0.0000 C   0  0  0  0  0  0  0  0  0  0  0  0
    2.5702    0.9464    0.0000 C   0  0  0  0  0  0  0  0  0  0  0  0
    2.5702    1.7739    0.0000 C   0  0  0  0  0  0  0  0  0  0  0  0
    1.8577    2.1829    0.0000 C   0  0  0  0  0  0  0  0  0  0  0  0
    1.1433    1.7739    0.0000 C   0  0  0  0  0  0  0  0  0  0  0  0
    1.8577    3.0104    0.0000 O   0  0  0  0  0  0  0  0  0  0  0  0
    1.0040    3.5008    0.0000 C   0  0  0  0  0  0  0  0  0  0  0  0
    3.2847    2.1829    0.0000 O   0  0  0  0  0  0  0  0  0  0  0  0
    3.9991    1.7739    0.0000 C   0  0  0  0  0  0  0  0  0  0  0  0
    1.8577   -0.2915    0.0000 C   0  0  0  0  0  0  0  0  0  0  0  0
    1.1433   -0.7005    0.0000 C   0  0  0  0  0  0  0  0  0  0  0  0
    0.4288   -0.2915    0.0000 N   0  3  0  0  0  0  0  0  0  0  0  0
   -0.2857   -0.7005    0.0000 C   0  0  0  0  0  0  0  0  0  0  0  0
   -1.0001   -0.2915    0.0000 C   0  0  0  0  0  0  0  0  0  0  0  0
   -1.0001    0.5359    0.0000 C   0  0  0  0  0  0  0  0  0  0  0  0
   -1.7146    0.9464    0.0000 C   0  0  0  0  0  0  0  0  0  0  0  0
   -2.4311    0.5359    0.0000 C   0  0  0  0  0  0  0  0  0  0  0  0
   -2.4311   -0.2915    0.0000 C   0  0  0  0  0  0  0  0  0  0  0  0
   -1.7146   -0.7005    0.0000 C   0  0  0  0  0  0  0  0  0  0  0  0
   -1.7146   -1.5279    0.0000 O   0  0  0  0  0  0  0  0  0  0  0  0
   -2.4332   -1.9446    0.0000 C   0  0  0  0  0  0  0  0  0  0  0  0
   -3.1455   -0.7005    0.0000 O   0  0  0  0  0  0  0  0  0  0  0  0
   -3.9991   -0.2119    0.0000 C   0  0  0  0  0  0  0  0  0  0  0  0
  1  2  1  0      
  1  3  2  0      
  1  4  1  0      
  5  6  1  0      
  6  7  1  0      
  6 23  2  0      
  7  8  1  0      
  7 20  2  0      
  8  9  1  0      
  8 13  2  0      
  9 10  2  0      
  9 18  1  0      
 10 11  1  0      
 12 11  2  0      
 11 16  1  0      
 13 12  1  0      
 12 14  1  0      
 14 15  1  0      
 16 17  1  0      
 19 18  1  0      
 20 19  1  0      
 20 21  1  0      
 22 21  2  0      
 23 22  1  0      
 22 27  1  0      
 23 24  1  0      
 24 25  2  0      
 25 26  1  0      
 27 26  2  0      
 26 30  1  0      
 27 28  1  0      
 28 29  1  0      
 30 31  1  0      
M  CHG  4   1   1   2  -1   4  -1  20   1
M  END

>  <RackCode>
HYCPK72336

>  <Cat. No.>
HY-N4238

>  <Product Name>
Dehydrocorydaline (nitrate)

>  <ROW>
O

>  <COLUMN>
9

>  <CAS No.>
13005-09-9

>  <MWt>
428.44

>  <Target>
Autophagy; Bcl-2 Family; Caspase; p38 MAPK; Parasite; PARP

>  <Saltdate>
Nitrate

>  <Smiles>
[O-][N+]([O-])=O.CC1=C(C=CC(OC)=C2OC)C2=C[N+]3=C1C4=CC(OC)=C(OC)C=C4CC3

>  <Solvent>
DMSO Solution

>  <Batch No.>
250401

>  <Quantity>
10mM  * 50uL

>  <Pathway>
Anti-infection; Apoptosis; Autophagy; Cell Cycle/DNA Damage; Epigenetics; MAPK/ERK Pathway

>  <Synonyms>
13-Methylpalmatine (nitrate)

>  <Formula>
C22H24N2O7

>  <Research_Area>
Cancer; Infection

>  <Clinical_Information>
No Development Reported

>  <SUPPLIER>
MedChemExpress

$$$$
Untitled Document
  ChemDraw05251616232D

 29 31  0  0  0  0  0  0  0  0999 V2000
   -0.0000    0.0000    0.0000 C   0  0  0  0  0  0  0  0  0  0  0  0
    0.7145   -0.4125    0.0000 C   0  0  0  0  0  0  0  0  0  0  0  0
    1.4289    0.0000    0.0000 C   0  0  0  0  0  0  0  0  0  0  0  0
    2.1433   -0.4125    0.0000 C   0  0  0  0  0  0  0  0  0  0  0  0
    2.1433   -1.2375    0.0000 C   0  0  0  0  0  0  0  0  0  0  0  0
    1.4289   -1.6500    0.0000 C   0  0  0  0  0  0  0  0  0  0  0  0
    0.7145   -1.2375    0.0000 C   0  0  0  0  0  0  0  0  0  0  0  0
   -0.0000    0.8250    0.0000 O   0  0  0  0  0  0  0  0  0  0  0  0
   -0.7145   -0.4125    0.0000 N   0  0  0  0  0  0  0  0  0  0  0  0
   -1.4289    0.0000    0.0000 N   0  0  0  0  0  0  0  0  0  0  0  0
   -2.1433   -0.4125    0.0000 C   0  0  0  0  0  0  0  0  0  0  0  0
   -2.1433   -1.2375    0.0000 C   0  0  0  0  0  0  0  0  0  0  0  0
   -2.8578    0.0000    0.0000 C   0  0  0  0  0  0  0  0  0  0  0  0
   -2.8578    0.8250    0.0000 C   0  0  0  0  0  0  0  0  0  0  0  0
   -3.5723    1.2375    0.0000 C   0  0  0  0  0  0  0  0  0  0  0  0
   -4.2867    0.8250    0.0000 C   0  0  0  0  0  0  0  0  0  0  0  0
   -4.2867    0.0000    0.0000 C   0  0  0  0  0  0  0  0  0  0  0  0
   -3.5723   -0.4125    0.0000 C   0  0  0  0  0  0  0  0  0  0  0  0
   -2.1433    1.2375    0.0000 O   0  0  0  0  0  0  0  0  0  0  0  0
   -5.0012   -0.4125    0.0000 Cl  0  0  0  0  0  0  0  0  0  0  0  0
    2.8578    0.0000    0.0000 S   0  0  0  0  0  0  0  0  0  0  0  0
    3.2703   -0.7145    0.0000 O   0  0  0  0  0  0  0  0  0  0  0  0
    2.4453    0.7145    0.0000 O   0  0  0  0  0  0  0  0  0  0  0  0
    3.5723    0.4125    0.0000 N   0  0  0  0  0  0  0  0  0  0  0  0
    3.5723    1.2375    0.0000 C   0  0  0  0  0  0  0  0  0  0  0  0
    4.2867    1.6500    0.0000 C   0  0  0  0  0  0  0  0  0  0  0  0
    5.0012    1.2375    0.0000 O   0  0  0  0  0  0  0  0  0  0  0  0
    5.0012    0.4125    0.0000 C   0  0  0  0  0  0  0  0  0  0  0  0
    4.2867    0.0000    0.0000 C   0  0  0  0  0  0  0  0  0  0  0  0
  1  2  1  0      
  2  3  1  0      
  3  4  2  0      
  4  5  1  0      
  5  6  2  0      
  6  7  1  0      
  2  7  2  0      
  1  8  2  0      
  9 10  1  0      
 11 12  1  0      
 13 14  1  0      
 14 15  2  0      
 15 16  1  0      
 16 17  2  0      
 17 18  1  0      
 13 18  2  0      
 14 19  1  0      
 17 20  1  0      
 11 13  1  0      
 10 11  2  0      
  1  9  1  0      
 21 22  2  0      
 21 23  2  0      
 24 25  1  0      
 25 26  1  0      
 26 27  1  0      
 27 28  1  0      
 28 29  1  0      
 24 29  1  0      
 21 24  1  0      
  4 21  1  0      
M  END

>  <RackCode>
HYCPK72336

>  <Cat. No.>
HY-12635

>  <Product Name>
SP2509

>  <ROW>
P

>  <COLUMN>
9

>  <CAS No.>
1423715-09-6

>  <MWt>
437.90

>  <Target>
Apoptosis; Histone Demethylase

>  <Saltdate>
Free Base

>  <Smiles>
O=C(N/N=C(C1=CC(Cl)=CC=C1O)\C)C2=CC=CC(S(=O)(N3CCOCC3)=O)=C2

>  <Solvent>
DMSO Solution

>  <Batch No.>
41820

>  <Quantity>
10mM  * 50uL

>  <Pathway>
Apoptosis; Epigenetics

>  <Synonyms>


>  <Formula>
C19H20ClN3O5S

>  <Research_Area>
Cancer

>  <Clinical_Information>
No Development Reported

>  <SUPPLIER>
MedChemExpress

$$$$
Untitled Document
  ChemDraw02222111032D

 41 45  0  0  0  0  0  0  0  0999 V2000
    0.7252    0.0458    0.0000 C   0  0  0  0  0  0  0  0  0  0  0  0
    0.0124    0.4612    0.0000 C   0  0  0  0  0  0  0  0  0  0  0  0
   -0.7037    0.0516    0.0000 C   0  0  0  0  0  0  0  0  0  0  0  0
   -1.4165    0.4669    0.0000 C   0  0  0  0  0  0  0  0  0  0  0  0
   -1.4132    1.2919    0.0000 C   0  0  0  0  0  0  0  0  0  0  0  0
   -0.6971    1.7016    0.0000 C   0  0  0  0  0  0  0  0  0  0  0  0
    0.0157    1.2862    0.0000 C   0  0  0  0  0  0  0  0  0  0  0  0
    0.7219   -0.7792    0.0000 O   0  0  0  0  0  0  0  0  0  0  0  0
    1.4413    0.4555    0.0000 N   0  0  0  0  0  0  0  0  0  0  0  0
   -0.7070   -0.7734    0.0000 O   0  0  0  0  0  0  0  0  0  0  0  0
   -2.1260    1.7073    0.0000 C   0  0  0  0  0  0  0  0  0  0  0  0
   -2.1227    2.5323    0.0000 N   0  0  0  0  0  0  0  0  0  0  0  0
   -2.8355    2.9476    0.0000 C   0  0  0  0  0  0  0  0  0  0  0  0
   -2.8322    3.7726    0.0000 C   0  0  0  0  0  0  0  0  0  0  0  0
   -2.1161    4.1823    0.0000 C   0  0  0  0  0  0  0  0  0  0  0  0
   -1.4033    3.7669    0.0000 C   0  0  0  0  0  0  0  0  0  0  0  0
   -1.4066    2.9419    0.0000 C   0  0  0  0  0  0  0  0  0  0  0  0
   -2.5257    4.8984    0.0000 C   0  0  0  0  0  0  0  0  0  0  0  0
   -1.7007    4.8951    0.0000 C   0  0  0  0  0  0  0  0  0  0  0  0
    2.1541    0.0401    0.0000 C   0  0  0  0  0  0  0  0  0  0  0  0
    1.4314   -2.0195    0.0000 N   0  0  0  0  0  0  0  0  0  0  0  0
    1.4347   -1.1945    0.0000 C   0  0  0  0  0  0  0  0  0  0  0  0
    2.1508   -0.7849    0.0000 C   0  0  0  0  0  0  0  0  0  0  0  0
    2.8636   -1.2002    0.0000 C   0  0  0  0  0  0  0  0  0  0  0  0
    2.8603   -2.0252    0.0000 C   0  0  0  0  0  0  0  0  0  0  0  0
    2.1442   -2.4349    0.0000 C   0  0  0  0  0  0  0  0  0  0  0  0
    2.8653   -0.3724    0.0000 O   0  0  0  0  0  0  0  0  0  0  0  0
   -0.7136   -2.4234    0.0000 C   0  0  0  0  0  0  0  0  0  0  0  0
    0.0025   -2.0138    0.0000 N   0  0  0  0  0  0  0  0  0  0  0  0
    0.7153   -2.4291    0.0000 C   0  0  0  0  0  0  0  0  0  0  0  0
    0.7120   -3.2541    0.0000 C   0  0  0  0  0  0  0  0  0  0  0  0
   -0.0041   -3.6638    0.0000 C   0  0  0  0  0  0  0  0  0  0  0  0
   -0.7169   -3.2484    0.0000 N   0  0  0  0  0  0  0  0  0  0  0  0
   -0.0074   -4.4888    0.0000 N   0  0  0  0  0  0  0  0  0  0  0  0
   -0.7236   -4.8984    0.0000 C   0  0  0  0  0  0  0  0  0  0  0  0
   -1.4364   -4.4830    0.0000 C   0  0  0  0  0  0  0  0  0  0  0  0
   -2.1525   -4.8927    0.0000 C   0  0  0  0  0  0  0  0  0  0  0  0
   -2.8653   -4.4773    0.0000 C   0  0  0  0  0  0  0  0  0  0  0  0
   -2.8620   -3.6523    0.0000 C   0  0  0  0  0  0  0  0  0  0  0  0
   -2.1459   -3.2427    0.0000 C   0  0  0  0  0  0  0  0  0  0  0  0
   -1.4331   -3.6580    0.0000 C   0  0  0  0  0  0  0  0  0  0  0  0
  1  2  1  0      
  2  3  1  0      
  3  4  2  0      
  4  5  1  0      
  5  6  2  0      
  6  7  1  0      
  2  7  2  0      
  1  8  2  0      
  1  9  1  0      
  3 10  1  0      
 12 13  1  0      
 13 14  1  0      
 14 15  1  0      
 15 16  1  0      
 16 17  1  0      
 12 17  1  0      
 15 18  1  6      
 15 19  1  1      
 11 12  1  0      
  5 11  1  0      
 21 22  1  0      
 22 23  1  0      
 23 24  1  0      
 24 25  1  0      
 25 26  1  0      
 21 26  1  0      
 23 27  1  6      
 28 29  1  0      
 29 30  2  0      
 30 31  1  0      
 31 32  2  0      
 32 33  1  0      
 28 33  2  0      
 35 36  1  0      
 36 37  1  0      
 37 38  2  0      
 38 39  1  0      
 39 40  2  0      
 40 41  1  0      
 36 41  2  0      
 34 35  1  0      
 32 34  1  0      
 21 30  1  0      
 20 23  1  0      
  9 20  1  0      
M  END

>  <RackCode>
HYCPK72336

>  <Cat. No.>
HY-134673B

>  <Product Name>
UZH1b

>  <ROW>
A

>  <COLUMN>
10

>  <CAS No.>
2814392-17-9

>  <MWt>
558.71

>  <Target>
METTL3

>  <Saltdate>
Free Base

>  <Smiles>
O=C(NC[C@]1(O)CN(C2=NC=NC(NCC3=CC=CC=C3)=C2)CCC1)C4=CC=C(CN5CCC(C)(C)CC5)C=C4O

>  <Solvent>
DMSO Solution

>  <Batch No.>
241683

>  <Quantity>
10mM  * 50uL

>  <Pathway>
Epigenetics

>  <Synonyms>


>  <Formula>
C32H42N6O3

>  <Research_Area>
Others

>  <Clinical_Information>
No Development Reported

>  <SUPPLIER>
MedChemExpress

$$$$
Untitled Document
  ChemDraw10211610532D

 21 23  0  0  0  0  0  0  0  0999 V2000
    1.7862    2.2688    0.0000 C   0  0  0  0  0  0  0  0  0  0  0  0
    2.5006    1.8563    0.0000 N   0  0  0  0  0  0  0  0  0  0  0  0
    2.5006    1.0313    0.0000 C   0  0  0  0  0  0  0  0  0  0  0  0
    1.7862    0.6187    0.0000 C   0  0  0  0  0  0  0  0  0  0  0  0
    1.0717    1.0313    0.0000 C   0  0  0  0  0  0  0  0  0  0  0  0
    0.3572    0.6187    0.0000 C   0  0  0  0  0  0  0  0  0  0  0  0
   -0.3572    1.0313    0.0000 C   0  0  0  0  0  0  0  0  0  0  0  0
   -0.3572    1.8563    0.0000 C   0  0  0  0  0  0  0  0  0  0  0  0
    0.3572    2.2688    0.0000 C   0  0  0  0  0  0  0  0  0  0  0  0
    1.0717    1.8563    0.0000 C   0  0  0  0  0  0  0  0  0  0  0  0
    1.7862    3.0938    0.0000 O   0  0  0  0  0  0  0  0  0  0  0  0
    0.3572   -0.2063    0.0000 O   0  0  0  0  0  0  0  0  0  0  0  0
   -0.3572   -0.6188    0.0000 C   0  0  0  0  0  0  0  0  0  0  0  0
   -0.3572   -1.4438    0.0000 C   0  0  0  0  0  0  0  0  0  0  0  0
   -1.0717   -1.8563    0.0000 C   0  0  0  0  0  0  0  0  0  0  0  0
   -1.0717   -2.6813    0.0000 C   0  0  0  0  0  0  0  0  0  0  0  0
   -1.7862   -3.0938    0.0000 C   0  0  0  0  0  0  0  0  0  0  0  0
   -2.5006   -2.6813    0.0000 C   0  0  0  0  0  0  0  0  0  0  0  0
   -2.5006   -1.8563    0.0000 C   0  0  0  0  0  0  0  0  0  0  0  0
   -1.7862   -1.4438    0.0000 C   0  0  0  0  0  0  0  0  0  0  0  0
    0.3572   -1.8563    0.0000 O   0  0  0  0  0  0  0  0  0  0  0  0
  1  2  1  0      
  2  3  1  0      
  3  4  2  0      
  4  5  1  0      
  5  6  1  0      
  6  7  2  0      
  7  8  1  0      
  8  9  2  0      
  9 10  1  0      
  1 10  1  0      
  5 10  2  0      
  1 11  2  0      
 13 14  1  0      
 12 13  1  0      
 15 16  1  0      
 16 17  2  0      
 17 18  1  0      
 18 19  2  0      
 19 20  1  0      
 15 20  2  0      
 14 15  1  0      
 14 21  2  0      
  6 12  1  0      
M  END

>  <RackCode>
HYCPK72336

>  <Cat. No.>
HY-14478

>  <Product Name>
UPF 1069

>  <ROW>
B

>  <COLUMN>
10

>  <CAS No.>
1048371-03-4

>  <MWt>
279.29

>  <Target>
PARP

>  <Saltdate>
Free Base

>  <Smiles>
O=C1NC=CC2=C1C=CC=C2OCC(C3=CC=CC=C3)=O

>  <Solvent>
DMSO Solution

>  <Batch No.>
10079

>  <Quantity>
10mM  * 50uL

>  <Pathway>
Cell Cycle/DNA Damage; Epigenetics

>  <Synonyms>


>  <Formula>
C17H13NO3

>  <Research_Area>
Cancer

>  <Clinical_Information>
No Development Reported

>  <SUPPLIER>
MedChemExpress

$$$$
Untitled Document
  ChemDraw05231617082D

 25 27  0  0  0  0  0  0  0  0999 V2000
    1.4290    0.2062    0.0000 C   0  0  0  0  0  0  0  0  0  0  0  0
    1.4290   -0.6187    0.0000 C   0  0  0  0  0  0  0  0  0  0  0  0
    0.7145   -1.0312    0.0000 C   0  0  0  0  0  0  0  0  0  0  0  0
   -0.0000   -0.6187    0.0000 C   0  0  0  0  0  0  0  0  0  0  0  0
   -0.0000    0.2062    0.0000 C   0  0  0  0  0  0  0  0  0  0  0  0
    0.7145    0.6187    0.0000 O   0  0  0  0  0  0  0  0  0  0  0  0
   -0.7145    0.6187    0.0000 C   0  0  0  0  0  0  0  0  0  0  0  0
   -1.4290    0.2062    0.0000 C   0  0  0  0  0  0  0  0  0  0  0  0
   -1.4290   -0.6187    0.0000 C   0  0  0  0  0  0  0  0  0  0  0  0
   -0.7145   -1.0312    0.0000 C   0  0  0  0  0  0  0  0  0  0  0  0
    0.7145   -1.8562    0.0000 O   0  0  0  0  0  0  0  0  0  0  0  0
   -2.1433   -1.0312    0.0000 C   0  0  0  0  0  0  0  0  0  0  0  0
   -2.8577   -0.6187    0.0000 C   0  0  0  0  0  0  0  0  0  0  0  0
   -3.5722   -1.0312    0.0000 C   0  0  0  0  0  0  0  0  0  0  0  0
   -3.5722   -1.8562    0.0000 C   0  0  0  0  0  0  0  0  0  0  0  0
   -4.2867   -0.6187    0.0000 C   0  0  0  0  0  0  0  0  0  0  0  0
   -2.1433    0.6187    0.0000 O   0  0  0  0  0  0  0  0  0  0  0  0
   -2.8577    0.2062    0.0000 C   0  0  0  0  0  0  0  0  0  0  0  0
    2.1433    0.6187    0.0000 C   0  0  0  0  0  0  0  0  0  0  0  0
    2.1433    1.4437    0.0000 C   0  0  0  0  0  0  0  0  0  0  0  0
    2.8577    1.8562    0.0000 C   0  0  0  0  0  0  0  0  0  0  0  0
    3.5722    1.4437    0.0000 C   0  0  0  0  0  0  0  0  0  0  0  0
    3.5722    0.6187    0.0000 C   0  0  0  0  0  0  0  0  0  0  0  0
    2.8577    0.2062    0.0000 C   0  0  0  0  0  0  0  0  0  0  0  0
    4.2867    1.8562    0.0000 O   0  0  0  0  0  0  0  0  0  0  0  0
  1  2  1  0      
  2  3  1  0      
  3  4  1  0      
  4  5  1  0      
  5  6  1  0      
  1  6  1  0      
  7  8  1  0      
  8  9  2  0      
  9 10  1  0      
  4 10  2  0      
  5  7  2  0      
  3 11  2  0      
 12 13  1  0      
 13 14  2  0      
 14 15  1  0      
 14 16  1  0      
  9 12  1  0      
 17 18  1  0      
  8 17  1  0      
 19 20  1  0      
 20 21  2  0      
 21 22  1  0      
 22 23  2  0      
 23 24  1  0      
 19 24  2  0      
 22 25  1  0      
  1 19  1  6      
M  END

>  <RackCode>
HYCPK72336

>  <Cat. No.>
HY-N0234

>  <Product Name>
Bavachinin

>  <ROW>
C

>  <COLUMN>
10

>  <CAS No.>
19879-30-2

>  <MWt>
338.40

>  <Target>
Amyloid-¦Â; HIF/HIF Prolyl-Hydroxylase; PPAR

>  <Saltdate>
Free Base

>  <Smiles>
O=C1C[C@@H](C2=CC=C(O)C=C2)OC3=CC(OC)=C(C/C=C(C)\C)C=C13

>  <Solvent>
DMSO Solution

>  <Batch No.>
52065

>  <Quantity>
10mM  * 50uL

>  <Pathway>
Cell Cycle/DNA Damage; Metabolic Enzyme/Protease; Neuronal Signaling; Vitamin D Related/Nuclear Receptor

>  <Synonyms>
7-O-Methylbavachin; Bavachinin A

>  <Formula>
C21H22O4

>  <Research_Area>
Inflammation/Immunology; Cancer

>  <Clinical_Information>
No Development Reported

>  <SUPPLIER>
MedChemExpress

$$$$
Untitled Document
  ChemDraw05101917272D

 36 39  0  0  0  0  0  0  0  0999 V2000
    4.6993   -0.3720    0.0000 O   0  0  0  0  0  0  0  0  0  0  0  0
    4.2868   -1.0865    0.0000 S   0  0  0  0  0  0  0  0  0  0  0  0
    3.5724   -0.6740    0.0000 C   0  0  0  0  0  0  0  0  0  0  0  0
    3.5724    0.1510    0.0000 C   0  0  0  0  0  0  0  0  0  0  0  0
    2.8579    0.5635    0.0000 C   0  0  0  0  0  0  0  0  0  0  0  0
    2.1434    0.1510    0.0000 C   0  0  0  0  0  0  0  0  0  0  0  0
    2.1434   -0.6740    0.0000 C   0  0  0  0  0  0  0  0  0  0  0  0
    1.4289   -1.0865    0.0000 N   0  0  0  0  0  0  0  0  0  0  0  0
    0.7145   -0.6740    0.0000 C   0  0  0  0  0  0  0  0  0  0  0  0
    0.0000   -1.0865    0.0000 N   0  0  0  0  0  0  0  0  0  0  0  0
   -0.7145   -0.6740    0.0000 C   0  0  0  0  0  0  0  0  0  0  0  0
   -1.4289   -1.0865    0.0000 N   0  0  0  0  0  0  0  0  0  0  0  0
   -2.1434   -0.6740    0.0000 C   0  0  0  0  0  0  0  0  0  0  0  0
   -2.8579   -1.0865    0.0000 C   0  0  0  0  0  0  0  0  0  0  0  0
   -3.5724   -0.6740    0.0000 C   0  0  0  0  0  0  0  0  0  0  0  0
   -3.5724    0.1510    0.0000 C   0  0  0  0  0  0  0  0  0  0  0  0
   -2.8579    0.5635    0.0000 C   0  0  0  0  0  0  0  0  0  0  0  0
   -2.1434    0.1510    0.0000 C   0  0  0  0  0  0  0  0  0  0  0  0
   -4.2868    0.5635    0.0000 N   0  0  0  0  0  0  0  0  0  0  0  0
   -5.0013    0.1510    0.0000 C   0  0  0  0  0  0  0  0  0  0  0  0
   -5.7158    0.5635    0.0000 C   0  0  0  0  0  0  0  0  0  0  0  0
   -5.7158    1.3885    0.0000 N   0  0  0  0  0  0  0  0  0  0  0  0
   -5.0013    1.8010    0.0000 C   0  0  0  0  0  0  0  0  0  0  0  0
   -4.2868    1.3885    0.0000 C   0  0  0  0  0  0  0  0  0  0  0  0
   -6.4302    1.8010    0.0000 C   0  0  0  0  0  0  0  0  0  0  0  0
   -0.7145    0.1510    0.0000 N   0  0  0  0  0  0  0  0  0  0  0  0
    0.0000    0.5635    0.0000 C   0  0  0  0  0  0  0  0  0  0  0  0
    0.7145    0.1510    0.0000 C   0  0  0  0  0  0  0  0  0  0  0  0
    1.4289    0.5635    0.0000 C   0  0  0  0  0  0  0  0  0  0  0  0
    2.8579   -1.0865    0.0000 C   0  0  0  0  0  0  0  0  0  0  0  0
    5.0013   -1.4990    0.0000 N   0  0  0  0  0  0  0  0  0  0  0  0
    5.7158   -1.0865    0.0000 C   0  0  0  0  0  0  0  0  0  0  0  0
    5.7158   -0.2615    0.0000 C   0  0  0  0  0  0  0  0  0  0  0  0
    6.4302   -0.6740    0.0000 C   0  0  0  0  0  0  0  0  0  0  0  0
    6.4302   -1.4990    0.0000 C   0  0  0  0  0  0  0  0  0  0  0  0
    3.8743   -1.8010    0.0000 O   0  0  0  0  0  0  0  0  0  0  0  0
  1  2  2  0      
  2  3  1  0      
  3  4  2  0      
  4  5  1  0      
  5  6  2  0      
  6  7  1  0      
  7  8  1  0      
  8  9  1  0      
  9 10  2  0      
 10 11  1  0      
 11 12  1  0      
 12 13  1  0      
 13 14  2  0      
 14 15  1  0      
 15 16  2  0      
 16 17  1  0      
 17 18  2  0      
 13 18  1  0      
 16 19  1  0      
 19 20  1  0      
 20 21  1  0      
 21 22  1  0      
 22 23  1  0      
 23 24  1  0      
 19 24  1  0      
 22 25  1  0      
 11 26  2  0      
 26 27  1  0      
 27 28  2  0      
  9 28  1  0      
 28 29  1  0      
  7 30  2  0      
  3 30  1  0      
  2 31  1  0      
 31 32  1  0      
 32 33  1  0      
 32 34  1  0      
 32 35  1  0      
  2 36  2  0      
M  END

>  <RackCode>
HYCPK72336

>  <Cat. No.>
HY-10410

>  <Product Name>
TG101209

>  <ROW>
D

>  <COLUMN>
10

>  <CAS No.>
936091-14-4

>  <MWt>
509.67

>  <Target>
Apoptosis; Autophagy; FLT3; JAK; RET

>  <Saltdate>
Free Base

>  <Smiles>
O=S(C1=CC=CC(NC2=NC(NC3=CC=C(C=C3)N4CCN(CC4)C)=NC=C2C)=C1)(NC(C)(C)C)=O

>  <Solvent>
DMSO Solution

>  <Batch No.>
15048

>  <Quantity>
10mM  * 50uL

>  <Pathway>
Apoptosis; Autophagy; Epigenetics; JAK/STAT Signaling; Protein Tyrosine Kinase/RTK; Stem Cell/Wnt

>  <Synonyms>


>  <Formula>
C26H35N7O2S

>  <Research_Area>
Cancer

>  <Clinical_Information>
No Development Reported

>  <SUPPLIER>
MedChemExpress

$$$$
Untitled Document
  ChemDraw11172210142D

 37 41  0  0  0  0  0  0  0  0999 V2000
   -0.2944   -0.6900    0.0000 C   0  0  0  0  0  0  0  0  0  0  0  0
    0.4196   -1.1054    0.0000 C   0  0  0  0  0  0  0  0  0  0  0  0
   -1.0072   -1.1054    0.0000 C   0  0  0  0  0  0  0  0  0  0  0  0
    1.1336   -0.6900    0.0000 C   0  0  0  0  0  0  0  0  0  0  0  0
   -1.6606   -0.5999    0.0000 N   0  0  0  0  0  0  0  0  0  0  0  0
   -1.2753   -1.8766    0.0000 N   0  0  0  0  0  0  0  0  0  0  0  0
    1.4010    0.0812    0.0000 O   0  0  0  0  0  0  0  0  0  0  0  0
    1.7887   -1.1977    0.0000 N   0  0  0  0  0  0  0  0  0  0  0  0
   -2.3445   -1.1054    0.0000 C   0  0  0  0  0  0  0  0  0  0  0  0
   -1.6606    0.2271    0.0000 C   0  0  0  0  0  0  0  0  0  0  0  0
   -2.1061   -1.8766    0.0000 N   0  0  0  0  0  0  0  0  0  0  0  0
    2.2334    0.0812    0.0000 C   0  0  0  0  0  0  0  0  0  0  0  0
    2.4716   -0.6900    0.0000 N   0  0  0  0  0  0  0  0  0  0  0  0
   -3.0611   -0.6900    0.0000 C   0  0  0  0  0  0  0  0  0  0  0  0
   -0.9511    0.6404    0.0000 C   0  0  0  0  0  0  0  0  0  0  0  0
   -2.3776    0.6404    0.0000 C   0  0  0  0  0  0  0  0  0  0  0  0
    2.9474    0.4927    0.0000 C   0  0  0  0  0  0  0  0  0  0  0  0
   -3.7707   -1.1054    0.0000 C   0  0  0  0  0  0  0  0  0  0  0  0
   -3.0611    0.1326    0.0000 N   0  0  0  0  0  0  0  0  0  0  0  0
   -0.2354    0.2271    0.0000 Cl  0  0  0  0  0  0  0  0  0  0  0  0
   -0.9511    1.4651    0.0000 C   0  0  0  0  0  0  0  0  0  0  0  0
   -2.3776    1.4651    0.0000 C   0  0  0  0  0  0  0  0  0  0  0  0
    2.9474    1.3175    0.0000 C   0  0  0  0  0  0  0  0  0  0  0  0
    3.6655    0.0812    0.0000 C   0  0  0  0  0  0  0  0  0  0  0  0
   -4.4899   -0.6900    0.0000 C   0  0  0  0  0  0  0  0  0  0  0  0
   -3.7707    0.5463    0.0000 C   0  0  0  0  0  0  0  0  0  0  0  0
   -1.6606    1.8766    0.0000 C   0  0  0  0  0  0  0  0  0  0  0  0
    3.6655    1.7308    0.0000 C   0  0  0  0  0  0  0  0  0  0  0  0
    4.3777    0.4927    0.0000 C   0  0  0  0  0  0  0  0  0  0  0  0
   -4.4899    0.1326    0.0000 C   0  0  0  0  0  0  0  0  0  0  0  0
    4.3777    1.3175    0.0000 C   0  0  0  0  0  0  0  0  0  0  0  0
   -5.2043    0.5463    0.0000 S   0  0  0  0  0  0  0  0  0  0  0  0
    5.0917    1.7308    0.0000 C   0  0  0  0  0  0  0  0  0  0  0  0
   -5.9167    0.1326    0.0000 C   0  0  0  0  0  0  0  0  0  0  0  0
   -5.6169    1.2603    0.0000 O   0  0  0  0  0  0  0  0  0  0  0  0
   -4.7893    1.2603    0.0000 O   0  0  0  0  0  0  0  0  0  0  0  0
    5.9167    1.7308    0.0000 N   0  0  0  0  0  0  0  0  0  0  0  0
  1  2  2  0      
  1  3  1  0      
  2  4  1  0      
  3  5  1  0      
  3  6  2  0      
  4  7  1  0      
  4  8  2  0      
  5  9  1  0      
  5 10  1  0      
  6 11  1  0      
  7 12  1  0      
  8 13  1  0      
  9 11  2  0      
  9 14  1  0      
 10 15  2  0      
 10 16  1  0      
 12 13  2  0      
 12 17  1  0      
 14 18  2  0      
 14 19  1  0      
 15 20  1  0      
 15 21  1  0      
 16 22  2  0      
 17 23  2  0      
 17 24  1  0      
 18 25  1  0      
 19 26  2  0      
 21 27  2  0      
 22 27  1  0      
 23 28  1  0      
 24 29  2  0      
 25 30  2  0      
 26 30  1  0      
 28 31  2  0      
 29 31  1  0      
 30 32  1  0      
 31 33  1  0      
 32 34  1  0      
 32 35  2  0      
 32 36  2  0      
 33 37  3  0      
M  END

>  <RackCode>
HYCPK72336

>  <Cat. No.>
HY-12438

>  <Product Name>
G007-LK

>  <ROW>
E

>  <COLUMN>
10

>  <CAS No.>
1380672-07-0

>  <MWt>
529.96

>  <Target>
PARP

>  <Saltdate>
Free Base

>  <Smiles>
ClC1=C(C=CC=C1)N2C(/C=C/C3=NN=C(C4=CC=C(C#N)C=C4)O3)=NN=C2C5=CC=C(S(C)(=O)=O)C=N5

>  <Solvent>
DMSO Solution

>  <Batch No.>
41077

>  <Quantity>
10mM  * 50uL

>  <Pathway>
Cell Cycle/DNA Damage; Epigenetics

>  <Synonyms>


>  <Formula>
C25H16ClN7O3S

>  <Research_Area>
Cancer

>  <Clinical_Information>
No Development Reported

>  <SUPPLIER>
MedChemExpress

$$$$
Untitled Document
  ChemDraw12121709522D

 27 29  0  0  0  0  0  0  0  0999 V2000
    1.4289    1.0313    0.0000 C   0  0  0  0  0  0  0  0  0  0  0  0
    1.4289    0.2062    0.0000 C   0  0  0  0  0  0  0  0  0  0  0  0
    0.7145   -0.2063    0.0000 C   0  0  0  0  0  0  0  0  0  0  0  0
    0.0000    0.2062    0.0000 C   0  0  0  0  0  0  0  0  0  0  0  0
    0.0000    1.0313    0.0000 C   0  0  0  0  0  0  0  0  0  0  0  0
    0.7145    1.4438    0.0000 O   0  0  0  0  0  0  0  0  0  0  0  0
   -0.7145    1.4438    0.0000 C   0  0  0  0  0  0  0  0  0  0  0  0
   -1.4289    1.0313    0.0000 C   0  0  0  0  0  0  0  0  0  0  0  0
   -1.4289    0.2062    0.0000 C   0  0  0  0  0  0  0  0  0  0  0  0
   -0.7145   -0.2063    0.0000 C   0  0  0  0  0  0  0  0  0  0  0  0
    2.1434    1.4438    0.0000 O   0  0  0  0  0  0  0  0  0  0  0  0
   -2.1434   -0.2063    0.0000 C   0  0  0  0  0  0  0  0  0  0  0  0
   -2.8579    0.2062    0.0000 C   0  0  0  0  0  0  0  0  0  0  0  0
   -3.5724   -0.2063    0.0000 C   0  0  0  0  0  0  0  0  0  0  0  0
   -3.5724   -1.0313    0.0000 C   0  0  0  0  0  0  0  0  0  0  0  0
   -4.2868    0.2062    0.0000 C   0  0  0  0  0  0  0  0  0  0  0  0
   -0.7145   -1.0313    0.0000 O   0  0  0  0  0  0  0  0  0  0  0  0
   -1.4289   -1.4438    0.0000 C   0  0  0  0  0  0  0  0  0  0  0  0
   -2.1434    1.4438    0.0000 O   0  0  0  0  0  0  0  0  0  0  0  0
    2.1434   -0.2063    0.0000 C   0  0  0  0  0  0  0  0  0  0  0  0
    2.1434   -1.0313    0.0000 C   0  0  0  0  0  0  0  0  0  0  0  0
    2.8579   -1.4438    0.0000 C   0  0  0  0  0  0  0  0  0  0  0  0
    3.5724   -1.0313    0.0000 C   0  0  0  0  0  0  0  0  0  0  0  0
    3.5724   -0.2063    0.0000 C   0  0  0  0  0  0  0  0  0  0  0  0
    2.8579    0.2062    0.0000 C   0  0  0  0  0  0  0  0  0  0  0  0
    4.2868   -1.4438    0.0000 O   0  0  0  0  0  0  0  0  0  0  0  0
    1.4289   -1.4438    0.0000 O   0  0  0  0  0  0  0  0  0  0  0  0
  1  2  1  0      
  2  3  2  0      
  3  4  1  0      
  4  5  1  0      
  5  6  1  0      
  1  6  1  0      
  7  8  1  0      
  8  9  2  0      
  9 10  1  0      
  4 10  2  0      
  5  7  2  0      
  1 11  2  0      
 12 13  1  0      
 13 14  2  0      
 14 15  1  0      
 14 16  1  0      
  9 12  1  0      
 17 18  1  0      
 10 17  1  0      
  8 19  1  0      
 20 21  1  0      
 21 22  2  0      
 22 23  1  0      
 23 24  2  0      
 24 25  1  0      
 20 25  2  0      
 23 26  1  0      
 21 27  1  0      
  2 20  1  0      
M  END

>  <RackCode>
HYCPK72336

>  <Cat. No.>
HY-N4113

>  <Product Name>
Glycycoumarin

>  <ROW>
F

>  <COLUMN>
10

>  <CAS No.>
94805-82-0

>  <MWt>
368.38

>  <Target>
AMPK; Keap1-Nrf2

>  <Saltdate>
Free Base

>  <Smiles>
O=C1C(C2=CC=C(O)C=C2O)=CC3=C(OC)C(C/C=C(C)\C)=C(O)C=C3O1

>  <Solvent>
DMSO Solution

>  <Batch No.>
114229

>  <Quantity>
10mM  * 50uL

>  <Pathway>
Epigenetics; NF-¦ÊB; PI3K/Akt/mTOR

>  <Synonyms>


>  <Formula>
C21H20O6

>  <Research_Area>
Cancer

>  <Clinical_Information>
No Development Reported

>  <SUPPLIER>
MedChemExpress

$$$$
Untitled Document
  ChemDraw12071715232D

 38 41  0  0  0  0  0  0  0  0999 V2000
    1.2160   -0.9693    0.0000 O   0  0  0  0  0  0  0  0  0  0  0  0
    0.4320   -0.7134    0.0000 C   0  0  0  0  0  0  0  0  0  0  0  0
   -0.2354   -1.1966    0.0000 C   0  0  0  0  0  0  0  0  0  0  0  0
    0.1761    0.0727    0.0000 N   0  0  0  0  0  0  0  0  0  0  0  0
   -0.9519   -1.6101    0.0000 C   0  0  0  0  0  0  0  0  0  0  0  0
    0.4770   -1.6101    0.0000 C   0  0  0  0  0  0  0  0  0  0  0  0
   -0.9028   -0.7134    0.0000 O   0  0  0  0  0  0  0  0  0  0  0  0
    0.8905    0.4842    0.0000 C   0  0  0  0  0  0  0  0  0  0  0  0
   -0.6489    0.0727    0.0000 C   0  0  0  0  0  0  0  0  0  0  0  0
   -0.9519   -2.4351    0.0000 C   0  0  0  0  0  0  0  0  0  0  0  0
   -1.6664   -1.1966    0.0000 C   0  0  0  0  0  0  0  0  0  0  0  0
    0.4770   -2.4351    0.0000 C   0  0  0  0  0  0  0  0  0  0  0  0
    1.8056   -0.0399    0.0000 C   0  0  0  0  0  0  0  0  0  0  0  0
   -1.1218    0.7482    0.0000 O   0  0  0  0  0  0  0  0  0  0  0  0
   -1.6664   -2.8466    0.0000 C   0  0  0  0  0  0  0  0  0  0  0  0
   -2.3808   -1.6101    0.0000 C   0  0  0  0  0  0  0  0  0  0  0  0
    2.5201    0.3716    0.0000 N   0  0  0  0  0  0  0  0  0  0  0  0
    1.8056   -1.0471    0.0000 O   0  0  0  0  0  0  0  0  0  0  0  0
   -2.3808   -2.4351    0.0000 C   0  0  0  0  0  0  0  0  0  0  0  0
    2.5201    1.1966    0.0000 C   0  0  0  0  0  0  0  0  0  0  0  0
    3.2345   -0.0399    0.0000 C   0  0  0  0  0  0  0  0  0  0  0  0
   -3.0953   -2.8466    0.0000 N   0  0  0  0  0  0  0  0  0  0  0  0
    3.2345    1.6101    0.0000 C   0  0  0  0  0  0  0  0  0  0  0  0
    3.9490    0.3716    0.0000 C   0  0  0  0  0  0  0  0  0  0  0  0
    3.2345   -0.8629    0.0000 C   0  0  0  0  0  0  0  0  0  0  0  0
   -3.8098   -2.4351    0.0000 C   0  0  0  0  0  0  0  0  0  0  0  0
    3.2345    2.4351    0.0000 C   0  0  0  0  0  0  0  0  0  0  0  0
    3.9510    1.1966    0.0000 C   0  0  0  0  0  0  0  0  0  0  0  0
    4.6634   -0.0399    0.0000 F   0  0  0  0  0  0  0  0  0  0  0  0
    4.3605    1.0881    0.0000 F   0  0  0  0  0  0  0  0  0  0  0  0
    3.5355    1.0881    0.0000 F   0  0  0  0  0  0  0  0  0  0  0  0
   -4.5263   -2.8466    0.0000 N   0  0  0  0  0  0  0  0  0  0  0  0
   -3.8098   -1.6101    0.0000 O   0  0  0  0  0  0  0  0  0  0  0  0
    3.9510    2.8466    0.0000 C   0  0  0  0  0  0  0  0  0  0  0  0
    4.6634    1.6101    0.0000 C   0  0  0  0  0  0  0  0  0  0  0  0
   -5.3779   -2.3553    0.0000 C   0  0  0  0  0  0  0  0  0  0  0  0
    4.6634    2.4351    0.0000 C   0  0  0  0  0  0  0  0  0  0  0  0
    5.3779    2.8466    0.0000 F   0  0  0  0  0  0  0  0  0  0  0  0
  1  2  2  0      
  3  2  1  1      
  2  4  1  0      
  3  5  1  0      
  3  6  1  0      
  3  7  1  6      
  4  8  1  0      
  4  9  1  0      
  5 10  1  0      
  5 11  2  0      
  6 12  1  0      
  7  9  1  0      
  8 13  1  0      
  9 14  2  0      
 10 12  1  0      
 10 15  2  0      
 11 16  1  0      
 13 17  1  0      
 13 18  2  0      
 15 19  1  0      
 16 19  2  0      
 17 20  1  0      
 17 21  1  0      
 19 22  1  0      
 20 23  1  0      
 21 24  1  0      
 21 25  1  6      
 22 26  1  0      
 23 27  2  0      
 23 28  1  0      
 24 29  1  0      
 24 30  1  0      
 24 31  1  0      
 26 32  1  0      
 26 33  2  0      
 27 34  1  0      
 28 35  2  0      
 32 36  1  0      
 34 37  2  0      
 35 37  1  0      
 37 38  1  0      
M  END

>  <RackCode>
HYCPK72336

>  <Cat. No.>
HY-107455

>  <Product Name>
A-485

>  <ROW>
G

>  <COLUMN>
10

>  <CAS No.>
1889279-16-6

>  <MWt>
536.48

>  <Target>
Epigenetic Reader Domain; Histone Acetyltransferase

>  <Saltdate>
Free Base

>  <Smiles>
O=C(N1CC(N([C@@H](C)C(F)(F)F)CC2=CC=C(F)C=C2)=O)[C@]3(OC1=O)C4=CC=C(NC(NC)=O)C=C4CC3

>  <Solvent>
DMSO Solution

>  <Batch No.>
29188

>  <Quantity>
10mM  * 50uL

>  <Pathway>
Epigenetics

>  <Synonyms>


>  <Formula>
C25H24F4N4O5

>  <Research_Area>
Cancer

>  <Clinical_Information>
No Development Reported

>  <SUPPLIER>
MedChemExpress

$$$$
Untitled Document
  ChemDraw05101917272D

 22 24  0  0  0  0  0  0  0  0999 V2000
   -1.4289   -2.0625    0.0000 O   0  0  0  0  0  0  0  0  0  0  0  0
   -0.7145   -1.6500    0.0000 C   0  0  0  0  0  0  0  0  0  0  0  0
   -0.7145   -0.8250    0.0000 C   0  0  0  0  0  0  0  0  0  0  0  0
    0.0000   -0.4125    0.0000 C   0  0  0  0  0  0  0  0  0  0  0  0
    0.7145   -0.8250    0.0000 C   0  0  0  0  0  0  0  0  0  0  0  0
    1.4289   -0.4125    0.0000 N   0  0  0  0  0  0  0  0  0  0  0  0
    1.4289    0.4125    0.0000 C   0  0  0  0  0  0  0  0  0  0  0  0
    0.7145    0.8250    0.0000 C   0  0  0  0  0  0  0  0  0  0  0  0
    0.0000    0.4125    0.0000 C   0  0  0  0  0  0  0  0  0  0  0  0
   -0.7145    0.8250    0.0000 C   0  0  0  0  0  0  0  0  0  0  0  0
   -1.4289    0.4125    0.0000 O   0  0  0  0  0  0  0  0  0  0  0  0
   -2.1434    0.8250    0.0000 C   0  0  0  0  0  0  0  0  0  0  0  0
   -0.7145    1.6500    0.0000 C   0  0  0  0  0  0  0  0  0  0  0  0
   -1.4289    2.0625    0.0000 O   0  0  0  0  0  0  0  0  0  0  0  0
   -2.1434    1.6500    0.0000 C   0  0  0  0  0  0  0  0  0  0  0  0
    0.0000    2.0625    0.0000 C   0  0  0  0  0  0  0  0  0  0  0  0
    0.7145    1.6500    0.0000 C   0  0  0  0  0  0  0  0  0  0  0  0
    1.4289    2.0625    0.0000 N   0  0  0  0  0  0  0  0  0  0  0  0
    2.1434    1.6500    0.0000 C   0  0  0  0  0  0  0  0  0  0  0  0
    2.1434    0.8250    0.0000 N   0  0  0  0  0  0  0  0  0  0  0  0
    0.7145   -1.6500    0.0000 C   0  0  0  0  0  0  0  0  0  0  0  0
    0.0000   -2.0625    0.0000 C   0  0  0  0  0  0  0  0  0  0  0  0
  1  2  1  0      
  2  3  2  0      
  3  4  1  0      
  4  5  2  0      
  5  6  1  0      
  6  7  1  0      
  7  8  2  0      
  8  9  1  0      
  9 10  2  0      
 10 11  1  0      
 11 12  1  0      
 10 13  1  0      
 13 14  1  0      
 14 15  1  0      
 13 16  2  0      
 16 17  1  0      
  8 17  1  0      
 17 18  2  0      
 18 19  1  0      
 19 20  2  0      
  7 20  1  0      
  5 21  1  0      
 21 22  2  0      
  2 22  1  0      
M  END

>  <RackCode>
HYCPK72336

>  <Cat. No.>
HY-15508

>  <Product Name>
JANEX-1

>  <ROW>
H

>  <COLUMN>
10

>  <CAS No.>
202475-60-3

>  <MWt>
297.31

>  <Target>
JAK

>  <Saltdate>
Free Base

>  <Smiles>
OC1=CC=C(NC2=C3C=C(OC)C(OC)=CC3=NC=N2)C=C1

>  <Solvent>
DMSO Solution

>  <Batch No.>
09880

>  <Quantity>
10mM  * 50uL

>  <Pathway>
Epigenetics; JAK/STAT Signaling; Protein Tyrosine Kinase/RTK; Stem Cell/Wnt

>  <Synonyms>
WHI-P131; Jak3 inhibitor I

>  <Formula>
C16H15N3O3

>  <Research_Area>
Cancer

>  <Clinical_Information>
No Development Reported

>  <SUPPLIER>
MedChemExpress

$$$$
Untitled Document
  ChemDraw05261615502D

 37 41  0  0  0  0  0  0  0  0999 V2000
    0.7735   -2.0059    0.0000 C   0  0  0  0  0  0  0  0  0  0  0  0
    1.4802   -1.5895    0.0000 C   0  0  0  0  0  0  0  0  0  0  0  0
    0.1802   -1.5895    0.0000 C   0  0  0  0  0  0  0  0  0  0  0  0
    0.7735   -2.8309    0.0000 C   0  0  0  0  0  0  0  0  0  0  0  0
    1.4802   -0.7645    0.0000 C   0  0  0  0  0  0  0  0  0  0  0  0
    2.8907   -1.5895    0.0000 C   0  0  0  0  0  0  0  0  0  0  0  0
   -0.6369   -2.0059    0.0000 C   0  0  0  0  0  0  0  0  0  0  0  0
    0.0698   -0.7645    0.0000 C   0  0  0  0  0  0  0  0  0  0  0  0
    0.1802   -3.2419    0.0000 C   0  0  0  0  0  0  0  0  0  0  0  0
    2.1840   -0.3535    0.0000 C   0  0  0  0  0  0  0  0  0  0  0  0
    0.7735   -0.3535    0.0000 C   0  0  0  0  0  0  0  0  0  0  0  0
    2.8907   -0.7645    0.0000 C   0  0  0  0  0  0  0  0  0  0  0  0
   -0.6369   -0.9400    0.0000 C   0  0  0  0  0  0  0  0  0  0  0  0
   -0.6369   -2.8309    0.0000 C   0  0  0  0  0  0  0  0  0  0  0  0
   -1.3407   -1.5895    0.0000 C   0  0  0  0  0  0  0  0  0  0  0  0
    2.1634    1.8666    0.0000 C   0  0  0  0  0  0  0  0  0  0  0  0
    0.7735    0.6548    0.0000 O   0  0  0  0  0  0  0  0  0  0  0  0
   -1.3407   -3.2419    0.0000 C   0  0  0  0  0  0  0  0  0  0  0  0
   -2.0485   -2.0059    0.0000 C   0  0  0  0  0  0  0  0  0  0  0  0
    1.4596    2.2757    0.0000 O   0  0  0  0  0  0  0  0  0  0  0  0
    2.8749    2.2757    0.0000 C   0  0  0  0  0  0  0  0  0  0  0  0
   -1.9978   -4.0292    0.0000 C   0  0  0  0  0  0  0  0  0  0  0  0
   -0.6842   -4.0292    0.0000 C   0  0  0  0  0  0  0  0  0  0  0  0
   -2.0485   -2.8309    0.0000 C   0  0  0  0  0  0  0  0  0  0  0  0
    1.4596    3.0933    0.0000 C   0  0  0  0  0  0  0  0  0  0  0  0
    2.8749    3.0933    0.0000 C   0  0  0  0  0  0  0  0  0  0  0  0
   -2.8985   -3.3196    0.0000 O   0  0  0  0  0  0  0  0  0  0  0  0
    1.1195    4.0292    0.0000 C   0  0  0  0  0  0  0  0  0  0  0  0
    0.5076    2.9282    0.0000 C   0  0  0  0  0  0  0  0  0  0  0  0
    2.1634    3.5049    0.0000 C   0  0  0  0  0  0  0  0  0  0  0  0
    2.8985    0.0590    0.0000 H   0  0  0  0  0  0  0  0  0  0  0  0
    1.4489    1.4541    0.0000 C   0  0  0  0  0  0  0  0  0  0  0  0
    1.4802    0.0605    0.0000 H   0  0  0  0  0  0  0  0  0  0  0  0
    0.7735   -1.1809    0.0000 C   0  0  0  0  0  0  0  0  0  0  0  0
   -0.2244   -3.5454    0.0000 H   0  0  0  0  0  0  0  0  0  0  0  0
    0.1802   -2.4145    0.0000 H   0  0  0  0  0  0  0  0  0  0  0  0
    1.4802   -2.4145    0.0000 C   0  0  0  0  0  0  0  0  0  0  0  0
  1  2  1  0      
  1  3  1  0      
  1  4  1  0      
  2  5  1  0      
  2  6  1  0      
  3  7  1  0      
  3  8  1  0      
  4  9  1  0      
  5 10  1  0      
  5 11  1  0      
  6 12  1  0      
  7 13  1  1      
  7 14  1  0      
  7 15  1  0      
  8 11  1  0      
  9 14  1  0      
 10 12  1  0      
 10 16  1  0      
 11 17  1  1      
 14 18  1  0      
 15 19  1  0      
 16 20  1  0      
 16 21  1  0      
 18 22  1  0      
 18 23  1  0      
 18 24  1  0      
 19 24  1  0      
 20 25  1  0      
 21 26  1  0      
 24 27  1  1      
 25 28  1  0      
 25 29  1  0      
 25 30  1  0      
 26 30  1  0      
 10 31  1  6      
 16 32  1  1      
  5 33  1  1      
  1 34  1  1      
 14 35  1  6      
  3 36  1  6      
  2 37  1  6      
M  END

>  <RackCode>
HYCPK72336

>  <Cat. No.>
HY-N0596

>  <Product Name>
Panaxadiol

>  <ROW>
I

>  <COLUMN>
10

>  <CAS No.>
19666-76-3

>  <MWt>
460.73

>  <Target>
HIF/HIF Prolyl-Hydroxylase; PD-1/PD-L1; STAT

>  <Saltdate>
Free Base

>  <Smiles>
C[C@@]1(CC[C@@H]2O)[C@](C[C@H]3O)([H])[C@](CC[C@@]1([H])C2(C)C)(C)[C@@]4(C)[C@@]3([H])[C@]([C@](CCC5)(C)OC5(C)C)([H])CC4

>  <Solvent>
DMSO Solution

>  <Batch No.>
103394

>  <Quantity>
10mM  * 50uL

>  <Pathway>
Immunology/Inflammation; JAK/STAT Signaling; Metabolic Enzyme/Protease; Stem Cell/Wnt

>  <Synonyms>
20(R)-Panaxadiol

>  <Formula>
C30H52O3

>  <Research_Area>
Cancer

>  <Clinical_Information>
No Development Reported

>  <SUPPLIER>
MedChemExpress

$$$$
Untitled Document
  ChemDraw05101917262D

 37 41  0  0  0  0  0  0  0  0999 V2000
   -2.8714    0.5845    0.0000 O   0  0  0  0  0  0  0  0  0  0  0  0
   -2.4589   -0.1299    0.0000 C   0  0  0  0  0  0  0  0  0  0  0  0
   -1.6339   -0.1299    0.0000 N   0  0  0  0  0  0  0  0  0  0  0  0
   -1.1490   -0.7974    0.0000 C   0  0  0  0  0  0  0  0  0  0  0  0
   -0.3644   -0.5424    0.0000 C   0  0  0  0  0  0  0  0  0  0  0  0
   -0.3644    0.2826    0.0000 C   0  0  0  0  0  0  0  0  0  0  0  0
    0.4203    0.5375    0.0000 N   0  0  0  0  0  0  0  0  0  0  0  0
    0.9052   -0.1299    0.0000 N   0  0  0  0  0  0  0  0  0  0  0  0
    0.4203   -0.7974    0.0000 C   0  0  0  0  0  0  0  0  0  0  0  0
    0.6752   -1.5820    0.0000 N   0  0  0  0  0  0  0  0  0  0  0  0
    1.4822   -1.7535    0.0000 C   0  0  0  0  0  0  0  0  0  0  0  0
    2.0342   -1.1404    0.0000 C   0  0  0  0  0  0  0  0  0  0  0  0
    1.7793   -0.3558    0.0000 C   0  0  0  0  0  0  0  0  0  0  0  0
    2.3313    0.2573    0.0000 C   0  0  0  0  0  0  0  0  0  0  0  0
    3.1383    0.0858    0.0000 C   0  0  0  0  0  0  0  0  0  0  0  0
    3.6903    0.6989    0.0000 N   0  0  0  0  0  0  0  0  0  0  0  0
    3.4354    1.4835    0.0000 C   0  0  0  0  0  0  0  0  0  0  0  0
    3.9874    2.0966    0.0000 C   0  0  0  0  0  0  0  0  0  0  0  0
    4.7944    1.9250    0.0000 N   0  0  0  0  0  0  0  0  0  0  0  0
    5.3464    2.5381    0.0000 C   0  0  0  0  0  0  0  0  0  0  0  0
    5.0493    1.1404    0.0000 C   0  0  0  0  0  0  0  0  0  0  0  0
    4.4973    0.5273    0.0000 C   0  0  0  0  0  0  0  0  0  0  0  0
    3.3932   -0.6989    0.0000 C   0  0  0  0  0  0  0  0  0  0  0  0
    2.8412   -1.3120    0.0000 C   0  0  0  0  0  0  0  0  0  0  0  0
    1.7371   -2.5381    0.0000 O   0  0  0  0  0  0  0  0  0  0  0  0
   -1.1490    0.5375    0.0000 C   0  0  0  0  0  0  0  0  0  0  0  0
   -2.8714   -0.8444    0.0000 N   0  0  0  0  0  0  0  0  0  0  0  0
   -3.6964   -0.8444    0.0000 C   0  0  0  0  0  0  0  0  0  0  0  0
   -4.1089   -1.5589    0.0000 C   0  0  0  0  0  0  0  0  0  0  0  0
   -4.9339   -1.5589    0.0000 C   0  0  0  0  0  0  0  0  0  0  0  0
   -5.3464   -0.8444    0.0000 C   0  0  0  0  0  0  0  0  0  0  0  0
   -4.9339   -0.1299    0.0000 C   0  0  0  0  0  0  0  0  0  0  0  0
   -4.1089   -0.1299    0.0000 C   0  0  0  0  0  0  0  0  0  0  0  0
   -3.6964    0.5845    0.0000 C   0  0  0  0  0  0  0  0  0  0  0  0
   -4.1089    1.2990    0.0000 C   0  0  0  0  0  0  0  0  0  0  0  0
   -3.6964   -2.2733    0.0000 C   0  0  0  0  0  0  0  0  0  0  0  0
   -2.8714   -2.2733    0.0000 C   0  0  0  0  0  0  0  0  0  0  0  0
  1  2  2  0      
  2  3  1  0      
  3  4  1  0      
  4  5  1  0      
  5  6  2  0      
  6  7  1  0      
  7  8  1  0      
  8  9  2  0      
  5  9  1  0      
  9 10  1  0      
 10 11  1  0      
 11 12  1  0      
 12 13  2  0      
 13 14  1  0      
 14 15  2  0      
 15 16  1  0      
 16 17  1  0      
 17 18  1  0      
 18 19  1  0      
 19 20  1  0      
 19 21  1  0      
 21 22  1  0      
 16 22  1  0      
 15 23  1  0      
 23 24  2  0      
 12 24  1  0      
 11 25  2  0      
  6 26  1  0      
  3 26  1  0      
  2 27  1  0      
 27 28  1  0      
 28 29  2  0      
 29 30  1  0      
 30 31  2  0      
 31 32  1  0      
 32 33  2  0      
 28 33  1  0      
 33 34  1  0      
 34 35  1  0      
 29 36  1  0      
 36 37  1  0      
M  END

>  <RackCode>
HYCPK72336

>  <Cat. No.>
HY-10178

>  <Product Name>
PHA-680632

>  <ROW>
J

>  <COLUMN>
10

>  <CAS No.>
398493-79-3

>  <MWt>
501.62

>  <Target>
Aurora Kinase

>  <Saltdate>
Free Base

>  <Smiles>
O=C(N1CC2=C(NN=C2NC(C3=CC=C(N4CCN(C)CC4)C=C3)=O)C1)NC5=C(C=CC=C5CC)CC

>  <Solvent>
DMSO Solution

>  <Batch No.>
23620

>  <Quantity>
10mM  * 50uL

>  <Pathway>
Cell Cycle/DNA Damage; Epigenetics

>  <Synonyms>


>  <Formula>
C28H35N7O2

>  <Research_Area>
Cancer

>  <Clinical_Information>
No Development Reported

>  <SUPPLIER>
MedChemExpress

$$$$
Untitled Document
  ChemDraw09142010152D

 16 17  0  0  0  0  0  0  0  0999 V2000
    0.7145    1.6500    0.0000 C   0  0  0  0  0  0  0  0  0  0  0  0
    0.0000    1.2375    0.0000 C   0  0  0  0  0  0  0  0  0  0  0  0
    0.0000    0.4125    0.0000 C   0  0  0  0  0  0  0  0  0  0  0  0
   -0.7145    0.0000    0.0000 C   0  0  0  0  0  0  0  0  0  0  0  0
   -1.4289    0.4125    0.0000 C   0  0  0  0  0  0  0  0  0  0  0  0
   -1.4289    1.2375    0.0000 C   0  0  0  0  0  0  0  0  0  0  0  0
   -0.7145    1.6500    0.0000 C   0  0  0  0  0  0  0  0  0  0  0  0
    0.7145    2.4750    0.0000 O   0  0  0  0  0  0  0  0  0  0  0  0
    1.4289    1.2375    0.0000 N   0  0  0  0  0  0  0  0  0  0  0  0
    0.7145    0.0000    0.0000 N   0  0  0  0  0  0  0  0  0  0  0  0
    0.7145   -0.8250    0.0000 C   0  0  0  0  0  0  0  0  0  0  0  0
    0.0000   -1.2375    0.0000 C   0  0  0  0  0  0  0  0  0  0  0  0
    0.0000   -2.0625    0.0000 C   0  0  0  0  0  0  0  0  0  0  0  0
    0.7145   -2.4750    0.0000 C   0  0  0  0  0  0  0  0  0  0  0  0
    1.4289   -2.0625    0.0000 C   0  0  0  0  0  0  0  0  0  0  0  0
    1.4289   -1.2375    0.0000 C   0  0  0  0  0  0  0  0  0  0  0  0
  1  2  1  0      
  2  3  1  0      
  3  4  2  0      
  4  5  1  0      
  5  6  2  0      
  6  7  1  0      
  2  7  2  0      
  1  8  2  0      
  1  9  1  0      
 11 12  1  0      
 12 13  2  0      
 13 14  1  0      
 14 15  2  0      
 15 16  1  0      
 11 16  2  0      
 10 11  1  0      
  3 10  1  0      
M  END

>  <RackCode>
HYCPK72336

>  <Cat. No.>
HY-133998

>  <Product Name>
SIRT-IN-3

>  <ROW>
K

>  <COLUMN>
10

>  <CAS No.>
1211-19-4

>  <MWt>
212.25

>  <Target>
Sirtuin

>  <Saltdate>


>  <Smiles>
O=C(N)C1=CC=CC=C1NC2=CC=CC=C2

>  <Solvent>
DMSO Solution

>  <Batch No.>
98435

>  <Quantity>
10mM  * 50uL

>  <Pathway>
Cell Cycle/DNA Damage; Epigenetics

>  <Synonyms>


>  <Formula>
C13H12N2O

>  <Research_Area>
Cancer

>  <Clinical_Information>
No Development Reported

>  <SUPPLIER>
MedChemExpress

$$$$
Untitled Document
  ChemDraw11131409252D

 33 36  0  0  0  0  0  0  0  0999 V2000
   -2.5537   -0.0835    0.0000 C   0  0  0  0  0  0  0  0  0  0  0  0
   -2.5537   -0.9085    0.0000 C   0  0  0  0  0  0  0  0  0  0  0  0
   -1.8392   -1.3211    0.0000 C   0  0  0  0  0  0  0  0  0  0  0  0
   -1.1247   -0.9085    0.0000 C   0  0  0  0  0  0  0  0  0  0  0  0
   -1.1247   -0.0835    0.0000 C   0  0  0  0  0  0  0  0  0  0  0  0
   -1.8392    0.3290    0.0000 C   0  0  0  0  0  0  0  0  0  0  0  0
   -3.2681    0.3290    0.0000 C   0  0  0  0  0  0  0  0  0  0  0  0
   -0.4103    0.3290    0.0000 C   0  0  0  0  0  0  0  0  0  0  0  0
   -3.3544    1.1495    0.0000 N   0  0  0  0  0  0  0  0  0  0  0  0
   -4.1613    1.3211    0.0000 O   0  0  0  0  0  0  0  0  0  0  0  0
   -4.5739    0.6065    0.0000 C   0  0  0  0  0  0  0  0  0  0  0  0
   -4.0219   -0.0065    0.0000 N   0  0  0  0  0  0  0  0  0  0  0  0
    0.3042   -0.0835    0.0000 N   0  0  0  0  0  0  0  0  0  0  0  0
    1.0187    0.3290    0.0000 C   0  0  0  0  0  0  0  0  0  0  0  0
    1.7331   -0.0835    0.0000 C   0  0  0  0  0  0  0  0  0  0  0  0
   -0.4103    1.1540    0.0000 O   0  0  0  0  0  0  0  0  0  0  0  0
    2.4477    0.3290    0.0000 C   0  0  0  0  0  0  0  0  0  0  0  0
    2.5340    1.1495    0.0000 C   0  0  0  0  0  0  0  0  0  0  0  0
    3.3409    1.3211    0.0000 O   0  0  0  0  0  0  0  0  0  0  0  0
    3.7534    0.6065    0.0000 C   0  0  0  0  0  0  0  0  0  0  0  0
    3.2014   -0.0065    0.0000 N   0  0  0  0  0  0  0  0  0  0  0  0
    4.5739    0.5203    0.0000 C   0  0  0  0  0  0  0  0  0  0  0  0
    4.9095   -0.2334    0.0000 C   0  0  0  0  0  0  0  0  0  0  0  0
    5.7299   -0.3196    0.0000 C   0  0  0  0  0  0  0  0  0  0  0  0
    6.2149    0.3479    0.0000 C   0  0  0  0  0  0  0  0  0  0  0  0
    5.8793    1.1015    0.0000 C   0  0  0  0  0  0  0  0  0  0  0  0
    5.0588    1.1877    0.0000 C   0  0  0  0  0  0  0  0  0  0  0  0
    2.1457   -0.7980    0.0000 C   0  0  0  0  0  0  0  0  0  0  0  0
    1.3207   -0.7980    0.0000 C   0  0  0  0  0  0  0  0  0  0  0  0
   -5.3944    0.5203    0.0000 C   0  0  0  0  0  0  0  0  0  0  0  0
   -5.8793    1.1877    0.0000 F   0  0  0  0  0  0  0  0  0  0  0  0
   -6.2149    0.4341    0.0000 F   0  0  0  0  0  0  0  0  0  0  0  0
   -5.7299   -0.2334    0.0000 F   0  0  0  0  0  0  0  0  0  0  0  0
  1  2  2  0      
  2  3  1  0      
  3  4  2  0      
  4  5  1  0      
  5  6  2  0      
  6  1  1  0      
  1  7  1  0      
  5  8  1  0      
  7  9  2  0      
  9 10  1  0      
 10 11  1  0      
 11 12  2  0      
 12  7  1  0      
 11 30  1  0      
  8 13  1  0      
 13 14  1  0      
 14 15  1  0      
  8 16  2  0      
 15 17  1  0      
 17 18  2  0      
 18 19  1  0      
 19 20  1  0      
 20 21  2  0      
 21 17  1  0      
 20 22  1  0      
 22 23  2  0      
 23 24  1  0      
 24 25  2  0      
 25 26  1  0      
 26 27  2  0      
 27 22  1  0      
 15 28  1  0      
 15 29  1  0      
 30 31  1  0      
 30 32  1  0      
 30 33  1  0      
M  END

>  <RackCode>
HYCPK72336

>  <Cat. No.>
HY-18361

>  <Product Name>
TMP195

>  <ROW>
L

>  <COLUMN>
10

>  <CAS No.>
1314891-22-9

>  <MWt>
456.42

>  <Target>
HDAC

>  <Saltdate>
Free Base

>  <Smiles>
O=C(NCC(C)(C)C1=COC(C2=CC=CC=C2)=N1)C3=CC(C4=NOC(C(F)(F)F)=N4)=CC=C3

>  <Solvent>
DMSO Solution

>  <Batch No.>
25009

>  <Quantity>
10mM  * 50uL

>  <Pathway>
Cell Cycle/DNA Damage; Epigenetics

>  <Synonyms>


>  <Formula>
C23H19F3N4O3

>  <Research_Area>
Cancer

>  <Clinical_Information>
No Development Reported

>  <SUPPLIER>
MedChemExpress

$$$$
Untitled Document
  ChemDraw11252213042D

 22 23  0  0  0  0  0  0  0  0999 V2000
    0.3572   -0.6187    0.0000 C   0  0  0  0  0  0  0  0  0  0  0  0
   -0.3572   -0.2062    0.0000 C   0  0  0  0  0  0  0  0  0  0  0  0
   -1.0717   -0.6187    0.0000 C   0  0  0  0  0  0  0  0  0  0  0  0
    0.3572   -1.4437    0.0000 O   0  0  0  0  0  0  0  0  0  0  0  0
    1.0717   -0.2062    0.0000 N   0  0  0  0  0  0  0  0  0  0  0  0
    1.7861   -0.6187    0.0000 C   0  0  0  0  0  0  0  0  0  0  0  0
    2.5005   -0.2062    0.0000 C   0  0  0  0  0  0  0  0  0  0  0  0
    3.2150   -0.6187    0.0000 C   0  0  0  0  0  0  0  0  0  0  0  0
    3.9295   -0.2062    0.0000 C   0  0  0  0  0  0  0  0  0  0  0  0
    3.9295    0.6187    0.0000 C   0  0  0  0  0  0  0  0  0  0  0  0
    3.2150    1.0313    0.0000 C   0  0  0  0  0  0  0  0  0  0  0  0
    2.5005    0.6187    0.0000 C   0  0  0  0  0  0  0  0  0  0  0  0
   -1.7861   -0.2062    0.0000 C   0  0  0  0  0  0  0  0  0  0  0  0
   -2.5005   -0.6187    0.0000 C   0  0  0  0  0  0  0  0  0  0  0  0
   -3.2150   -0.2062    0.0000 C   0  0  0  0  0  0  0  0  0  0  0  0
   -3.2150    0.6187    0.0000 C   0  0  0  0  0  0  0  0  0  0  0  0
   -2.5005    1.0313    0.0000 C   0  0  0  0  0  0  0  0  0  0  0  0
   -1.7861    0.6187    0.0000 C   0  0  0  0  0  0  0  0  0  0  0  0
   -3.9295    1.0313    0.0000 O   0  0  0  0  0  0  0  0  0  0  0  0
   -3.9295   -0.6187    0.0000 O   0  0  0  0  0  0  0  0  0  0  0  0
   -0.3572    0.6187    0.0000 C   0  0  0  0  0  0  0  0  0  0  0  0
   -0.3572    1.4437    0.0000 N   0  0  0  0  0  0  0  0  0  0  0  0
  1  2  1  0      
  2  3  2  0      
  1  4  2  0      
  1  5  1  0      
  7  8  1  0      
  8  9  2  0      
  9 10  1  0      
 10 11  2  0      
 11 12  1  0      
  7 12  2  0      
  6  7  1  0      
  5  6  1  0      
 13 14  1  0      
 14 15  2  0      
 15 16  1  0      
 16 17  2  0      
 17 18  1  0      
 13 18  2  0      
 16 19  1  0      
 15 20  1  0      
  3 13  1  0      
 21 22  3  0      
  2 21  1  0      
M  END

>  <RackCode>
HYCPK72336

>  <Cat. No.>
HY-12000

>  <Product Name>
AG490

>  <ROW>
M

>  <COLUMN>
10

>  <CAS No.>
133550-30-8

>  <MWt>
294.30

>  <Target>
Autophagy; EGFR; JAK; STAT

>  <Saltdate>
Free Base

>  <Smiles>
O=C(NCC1=CC=CC=C1)/C(C#N)=C/C2=CC=C(O)C(O)=C2

>  <Solvent>
DMSO Solution

>  <Batch No.>
65923

>  <Quantity>
10mM  * 50uL

>  <Pathway>
Autophagy; Epigenetics; JAK/STAT Signaling; Protein Tyrosine Kinase/RTK; Stem Cell/Wnt

>  <Synonyms>
Tyrphostin AG490; Tyrphostin B42

>  <Formula>
C17H14N2O3

>  <Research_Area>
Cancer

>  <Clinical_Information>
No Development Reported

>  <SUPPLIER>
MedChemExpress

$$$$
Untitled Document
  ChemDraw09012216432D

 24 24  0  0  0  0  0  0  0  0999 V2000
   -1.8577   -2.4750    0.0000 C   0  0  0  0  0  0  0  0  0  0  0  0
   -2.5722   -2.0625    0.0000 N   0  0  0  0  0  0  0  0  0  0  0  0
   -2.5722   -1.2375    0.0000 C   0  0  0  0  0  0  0  0  0  0  0  0
   -1.8577   -0.8250    0.0000 C   0  0  0  0  0  0  0  0  0  0  0  0
   -1.1433   -1.2375    0.0000 C   0  0  0  0  0  0  0  0  0  0  0  0
   -0.4288   -0.8250    0.0000 C   0  0  0  0  0  0  0  0  0  0  0  0
    0.2857   -1.2375    0.0000 C   0  0  0  0  0  0  0  0  0  0  0  0
    0.2857   -2.0625    0.0000 C   0  0  0  0  0  0  0  0  0  0  0  0
   -0.4288   -2.4750    0.0000 C   0  0  0  0  0  0  0  0  0  0  0  0
   -1.1433   -2.0625    0.0000 C   0  0  0  0  0  0  0  0  0  0  0  0
   -0.4288    0.0000    0.0000 S   0  0  0  0  0  0  0  0  0  0  0  0
    0.3962    0.0000    0.0000 O   0  0  0  0  0  0  0  0  0  0  0  0
   -1.2538    0.0000    0.0000 O   0  0  0  0  0  0  0  0  0  0  0  0
   -0.4288    0.8250    0.0000 N   0  0  0  0  0  0  0  0  0  0  0  0
   -1.1433    1.2375    0.0000 C   0  0  0  0  0  0  0  0  0  0  0  0
   -1.1433    2.0625    0.0000 C   0  0  0  0  0  0  0  0  0  0  0  0
   -0.4288    2.4750    0.0000 N   0  0  0  0  0  0  0  0  0  0  0  0
    0.2857    2.0625    0.0000 C   0  0  0  0  0  0  0  0  0  0  0  0
    0.2857    1.2375    0.0000 C   0  0  0  0  0  0  0  0  0  0  0  0
   -1.8577    0.8250    0.0000 C   0  0  0  0  0  0  0  0  0  0  0  0
    1.7472   -0.2281    0.0000 H   0  0  0  0  0  0  0  0  0  0  0  0
    2.5722   -0.2281    0.0000 Cl  0  0  0  0  0  0  0  0  0  0  0  0
    1.7472   -1.4742    0.0000 H   0  0  0  0  0  0  0  0  0  0  0  0
    2.5722   -1.4742    0.0000 Cl  0  0  0  0  0  0  0  0  0  0  0  0
  1  2  2  0      
  2  3  1  0      
  3  4  2  0      
  4  5  1  0      
  5  6  1  0      
  6  7  2  0      
  7  8  1  0      
  8  9  2  0      
  9 10  1  0      
  1 10  1  0      
  5 10  2  0      
 11 12  2  0      
 11 13  2  0      
 14 15  1  0      
 15 16  1  0      
 16 17  1  0      
 17 18  1  0      
 18 19  1  0      
 14 19  1  0      
 15 20  1  0      
 11 14  1  0      
  6 11  1  0      
 21 22  1  0      
 23 24  1  0      
M  END

>  <RackCode>
HYCPK72336

>  <Cat. No.>
HY-100983

>  <Product Name>
Protein kinase inhibitor H-7 (dihydrochloride)

>  <ROW>
N

>  <COLUMN>
10

>  <CAS No.>
108930-17-2

>  <MWt>
364.29

>  <Target>
PKC

>  <Saltdate>
Hydrochloride

>  <Smiles>
O=S(C1=CC=CC2=C1C=CN=C2)(N3C(C)CNCC3)=O.[H]Cl.[H]Cl

>  <Solvent>
DMSO Solution

>  <Batch No.>
228435

>  <Quantity>
10mM  * 50uL

>  <Pathway>
Epigenetics; TGF-beta/Smad

>  <Synonyms>


>  <Formula>
C14H19Cl2N3O2S

>  <Research_Area>
Cancer

>  <Clinical_Information>
No Development Reported

>  <SUPPLIER>
MedChemExpress

$$$$
Untitled Document
  ChemDraw11172210162D

 27 29  0  0  0  0  0  0  0  0999 V2000
    1.7036   -1.3509    0.0000 C   0  0  0  0  0  0  0  0  0  0  0  0
    0.9911   -0.9346    0.0000 C   0  0  0  0  0  0  0  0  0  0  0  0
    0.2745   -1.3436    0.0000 C   0  0  0  0  0  0  0  0  0  0  0  0
    1.6994   -2.1759    0.0000 O   0  0  0  0  0  0  0  0  0  0  0  0
    2.4201   -0.9420    0.0000 N   0  0  0  0  0  0  0  0  0  0  0  0
   -1.3260    0.0691    0.0000 N   0  0  0  0  0  0  0  0  0  0  0  0
   -1.7421   -0.6432    0.0000 N   0  0  0  0  0  0  0  0  0  0  0  0
   -1.1931   -1.2590    0.0000 C   0  0  0  0  0  0  0  0  0  0  0  0
   -0.4378   -0.9274    0.0000 C   0  0  0  0  0  0  0  0  0  0  0  0
   -0.5198   -0.1065    0.0000 C   0  0  0  0  0  0  0  0  0  0  0  0
   -1.6577    0.8245    0.0000 C   0  0  0  0  0  0  0  0  0  0  0  0
   -2.4778    0.9150    0.0000 C   0  0  0  0  0  0  0  0  0  0  0  0
   -2.8094    1.6704    0.0000 C   0  0  0  0  0  0  0  0  0  0  0  0
   -3.6294    1.7608    0.0000 C   0  0  0  0  0  0  0  0  0  0  0  0
   -4.1171    1.0958    0.0000 C   0  0  0  0  0  0  0  0  0  0  0  0
   -4.9374    1.1862    0.0000 C   0  0  0  0  0  0  0  0  0  0  0  0
   -5.2692    1.9416    0.0000 C   0  0  0  0  0  0  0  0  0  0  0  0
   -4.7809    2.6066    0.0000 C   0  0  0  0  0  0  0  0  0  0  0  0
   -3.9608    2.5162    0.0000 C   0  0  0  0  0  0  0  0  0  0  0  0
    3.1324   -1.3582    0.0000 C   0  0  0  0  0  0  0  0  0  0  0  0
    3.8490   -0.9493    0.0000 C   0  0  0  0  0  0  0  0  0  0  0  0
    4.5609   -1.3655    0.0000 C   0  0  0  0  0  0  0  0  0  0  0  0
    4.5567   -2.1905    0.0000 C   0  0  0  0  0  0  0  0  0  0  0  0
    3.8406   -2.5993    0.0000 C   0  0  0  0  0  0  0  0  0  0  0  0
    3.1282   -2.1831    0.0000 C   0  0  0  0  0  0  0  0  0  0  0  0
    5.2692   -2.6066    0.0000 F   0  0  0  0  0  0  0  0  0  0  0  0
    3.8531   -0.1242    0.0000 N   0  0  0  0  0  0  0  0  0  0  0  0
  1  2  1  0      
  2  3  2  0      
  1  4  2  0      
  1  5  1  0      
  6  7  1  0      
  7  8  2  0      
  8  9  1  0      
  9 10  2  0      
  6 10  1  0      
 11 12  1  0      
 12 13  2  0      
 14 15  1  0      
 15 16  2  0      
 16 17  1  0      
 17 18  2  0      
 18 19  1  0      
 14 19  2  0      
 13 14  1  0      
  6 11  1  0      
  3  9  1  0      
 20 21  1  0      
 21 22  2  0      
 22 23  1  0      
 23 24  2  0      
 24 25  1  0      
 20 25  2  0      
 23 26  1  0      
 21 27  1  0      
  5 20  1  0      
M  END

>  <RackCode>
HYCPK72336

>  <Cat. No.>
HY-13909

>  <Product Name>
RGFP966

>  <ROW>
O

>  <COLUMN>
10

>  <CAS No.>
1357389-11-7

>  <MWt>
362.40

>  <Target>
HDAC

>  <Saltdate>
Free Base

>  <Smiles>
O=C(NC1=CC=C(F)C=C1N)/C=C/C2=CN(C/C=C/C3=CC=CC=C3)N=C2

>  <Solvent>
DMSO Solution

>  <Batch No.>
117503

>  <Quantity>
10mM  * 50uL

>  <Pathway>
Cell Cycle/DNA Damage; Epigenetics

>  <Synonyms>


>  <Formula>
C21H19FN4O

>  <Research_Area>
Cancer

>  <Clinical_Information>
No Development Reported

>  <SUPPLIER>
MedChemExpress

$$$$
Untitled Document
  ChemDraw02212315482D

 30 33  0  0  0  0  0  0  0  0999 V2000
   -0.3918   -2.8366    0.0000 C   0  0  0  0  0  0  0  0  0  0  0  0
   -0.6467   -2.0519    0.0000 C   0  0  0  0  0  0  0  0  0  0  0  0
   -1.4313   -1.7970    0.0000 C   0  0  0  0  0  0  0  0  0  0  0  0
   -1.4313   -0.9720    0.0000 C   0  0  0  0  0  0  0  0  0  0  0  0
   -0.6467   -0.7171    0.0000 N   0  0  0  0  0  0  0  0  0  0  0  0
   -0.1618   -1.3845    0.0000 N   0  0  0  0  0  0  0  0  0  0  0  0
   -0.3918    0.0676    0.0000 C   0  0  0  0  0  0  0  0  0  0  0  0
    0.4152    0.2391    0.0000 C   0  0  0  0  0  0  0  0  0  0  0  0
    0.6702    1.0237    0.0000 C   0  0  0  0  0  0  0  0  0  0  0  0
    1.4771    1.1952    0.0000 N   0  0  0  0  0  0  0  0  0  0  0  0
    2.0292    0.5821    0.0000 C   0  0  0  0  0  0  0  0  0  0  0  0
    2.8361    0.7537    0.0000 C   0  0  0  0  0  0  0  0  0  0  0  0
    3.3882    0.1406    0.0000 C   0  0  0  0  0  0  0  0  0  0  0  0
    3.1332   -0.6441    0.0000 C   0  0  0  0  0  0  0  0  0  0  0  0
    3.6853   -1.2572    0.0000 O   0  0  0  0  0  0  0  0  0  0  0  0
    2.3263   -0.8156    0.0000 C   0  0  0  0  0  0  0  0  0  0  0  0
    1.7742   -0.2025    0.0000 C   0  0  0  0  0  0  0  0  0  0  0  0
    0.1181    1.6368    0.0000 C   0  0  0  0  0  0  0  0  0  0  0  0
    0.3731    2.4214    0.0000 C   0  0  0  0  0  0  0  0  0  0  0  0
    1.1800    2.5929    0.0000 N   0  0  0  0  0  0  0  0  0  0  0  0
   -0.1790    3.0345    0.0000 O   0  0  0  0  0  0  0  0  0  0  0  0
   -0.6888    1.4653    0.0000 C   0  0  0  0  0  0  0  0  0  0  0  0
   -0.9438    0.6806    0.0000 C   0  0  0  0  0  0  0  0  0  0  0  0
   -2.1458   -0.5595    0.0000 C   0  0  0  0  0  0  0  0  0  0  0  0
   -2.8603   -0.9720    0.0000 C   0  0  0  0  0  0  0  0  0  0  0  0
   -3.6853   -0.9720    0.0000 C   0  0  0  0  0  0  0  0  0  0  0  0
   -3.2728   -0.2575    0.0000 C   0  0  0  0  0  0  0  0  0  0  0  0
   -2.8603   -1.7970    0.0000 C   0  0  0  0  0  0  0  0  0  0  0  0
   -2.1458   -2.2095    0.0000 C   0  0  0  0  0  0  0  0  0  0  0  0
   -2.1458   -3.0345    0.0000 O   0  0  0  0  0  0  0  0  0  0  0  0
  1  2  1  0      
  2  3  1  0      
  3  4  2  0      
  4  5  1  0      
  5  6  1  0      
  2  6  2  0      
  5  7  1  0      
  7  8  2  0      
  8  9  1  0      
  9 10  1  0      
 11 10  1  6      
 11 12  1  0      
 12 13  1  0      
 13 14  1  0      
 14 15  1  1      
 14 16  1  0      
 16 17  1  0      
 11 17  1  0      
  9 18  2  0      
 18 19  1  0      
 19 20  1  0      
 19 21  2  0      
 18 22  1  0      
 22 23  2  0      
  7 23  1  0      
  4 24  1  0      
 24 25  1  0      
 25 26  1  0      
 25 27  1  0      
 25 28  1  0      
 28 29  1  0      
  3 29  1  0      
 29 30  2  0      
M  END

>  <RackCode>
HYCPK72336

>  <Cat. No.>
HY-148877

>  <Product Name>
AT-533

>  <ROW>
P

>  <COLUMN>
10

>  <CAS No.>
908112-37-8

>  <MWt>
410.51

>  <Target>
Akt; ERK; FAK; HIF/HIF Prolyl-Hydroxylase; HSP; HSV; NF-¦ÊB; VEGFR

>  <Saltdate>


>  <Smiles>
CC1=NN(C2=CC(N[C@@H]3CC[C@H](CC3)O)=C(C=C2)C(N)=O)C(CC(C)(C4)C)=C1C4=O

>  <Solvent>
DMSO Solution

>  <Batch No.>
254790

>  <Quantity>
10mM  * 50uL

>  <Pathway>
Anti-infection; Cell Cycle/DNA Damage; MAPK/ERK Pathway; Metabolic Enzyme/Protease; NF-¦ÊB; PI3K/Akt/mTOR; Protein Tyrosine Kinase/RTK; Stem Cell/Wnt

>  <Synonyms>


>  <Formula>
C23H30N4O3

>  <Research_Area>
Cancer; Infection; Inflammation/Immunology

>  <Clinical_Information>
No Development Reported

>  <SUPPLIER>
MedChemExpress

$$$$
Untitled Document
  ChemDraw03182413102D

 69 76  0  0  0  0  0  0  0  0999 V2000
    8.2562   -2.5463    0.0000 F   0  0  0  0  0  0  0  0  0  0  0  0
    7.4679   -2.7895    0.0000 C   0  0  0  0  0  0  0  0  0  0  0  0
    7.2843   -3.5938    0.0000 C   0  0  0  0  0  0  0  0  0  0  0  0
    6.4959   -3.8370    0.0000 C   0  0  0  0  0  0  0  0  0  0  0  0
    5.8912   -3.2759    0.0000 C   0  0  0  0  0  0  0  0  0  0  0  0
    6.0747   -2.4716    0.0000 C   0  0  0  0  0  0  0  0  0  0  0  0
    5.4700   -1.9104    0.0000 O   0  0  0  0  0  0  0  0  0  0  0  0
    4.6816   -2.1536    0.0000 C   0  0  0  0  0  0  0  0  0  0  0  0
    6.8631   -2.2284    0.0000 C   0  0  0  0  0  0  0  0  0  0  0  0
    7.0467   -1.4241    0.0000 C   0  0  0  0  0  0  0  0  0  0  0  0
    7.8510   -1.2405    0.0000 N   0  0  0  0  0  0  0  0  0  0  0  0
    8.2089   -0.4972    0.0000 C   0  0  0  0  0  0  0  0  0  0  0  0
    7.8510    0.2461    0.0000 C   0  0  0  0  0  0  0  0  0  0  0  0
    8.4121    0.8509    0.0000 C   0  0  0  0  0  0  0  0  0  0  0  0
    8.1690    1.6392    0.0000 N   0  0  0  0  0  0  0  0  0  0  0  0
    7.3646    1.8228    0.0000 C   0  0  0  0  0  0  0  0  0  0  0  0
    7.1215    2.6112    0.0000 N   0  0  0  0  0  0  0  0  0  0  0  0
    6.3172    2.7947    0.0000 C   0  0  0  0  0  0  0  0  0  0  0  0
    6.0740    3.5831    0.0000 C   0  0  0  0  0  0  0  0  0  0  0  0
    5.2697    3.7667    0.0000 C   0  0  0  0  0  0  0  0  0  0  0  0
    4.7085    3.1619    0.0000 C   0  0  0  0  0  0  0  0  0  0  0  0
    3.9042    3.3455    0.0000 C   0  0  0  0  0  0  0  0  0  0  0  0
    3.3208    2.7621    0.0000 N   0  0  0  0  0  0  0  0  0  0  0  0
    2.5240    2.9756    0.0000 C   0  0  0  0  0  0  0  0  0  0  0  0
    1.9406    2.3923    0.0000 C   0  0  0  0  0  0  0  0  0  0  0  0
    1.1437    2.6058    0.0000 O   0  0  0  0  0  0  0  0  0  0  0  0
    0.5603    2.0224    0.0000 C   0  0  0  0  0  0  0  0  0  0  0  0
   -0.2365    2.2360    0.0000 C   0  0  0  0  0  0  0  0  0  0  0  0
   -0.8199    1.6526    0.0000 O   0  0  0  0  0  0  0  0  0  0  0  0
   -1.6168    1.8661    0.0000 C   0  0  0  0  0  0  0  0  0  0  0  0
   -2.2002    1.2828    0.0000 C   0  0  0  0  0  0  0  0  0  0  0  0
   -2.9970    1.4963    0.0000 N   0  0  0  0  0  0  0  0  0  0  0  0
   -3.5804    0.9129    0.0000 C   0  0  0  0  0  0  0  0  0  0  0  0
   -4.3773    1.1265    0.0000 C   0  0  0  0  0  0  0  0  0  0  0  0
   -4.9607    0.5431    0.0000 O   0  0  0  0  0  0  0  0  0  0  0  0
   -5.7576    0.7566    0.0000 C   0  0  0  0  0  0  0  0  0  0  0  0
   -6.3409    0.1733    0.0000 C   0  0  0  0  0  0  0  0  0  0  0  0
   -7.1378    0.3868    0.0000 C   0  0  0  0  0  0  0  0  0  0  0  0
   -7.5871   -0.3051    0.0000 C   0  0  0  0  0  0  0  0  0  0  0  0
   -7.0679   -0.9463    0.0000 N   0  0  0  0  0  0  0  0  0  0  0  0
   -7.2815   -1.7432    0.0000 C   0  0  0  0  0  0  0  0  0  0  0  0
   -8.0784   -1.9567    0.0000 C   0  0  0  0  0  0  0  0  0  0  0  0
   -8.2919   -2.7536    0.0000 C   0  0  0  0  0  0  0  0  0  0  0  0
   -7.7085   -3.3369    0.0000 C   0  0  0  0  0  0  0  0  0  0  0  0
   -6.9116   -3.1234    0.0000 N   0  0  0  0  0  0  0  0  0  0  0  0
   -6.6981   -2.3265    0.0000 C   0  0  0  0  0  0  0  0  0  0  0  0
   -5.9012   -2.1130    0.0000 O   0  0  0  0  0  0  0  0  0  0  0  0
   -7.9220   -4.1338    0.0000 O   0  0  0  0  0  0  0  0  0  0  0  0
   -6.2977   -0.6506    0.0000 C   0  0  0  0  0  0  0  0  0  0  0  0
   -5.5833   -1.0631    0.0000 O   0  0  0  0  0  0  0  0  0  0  0  0
   -8.4121   -0.3051    0.0000 O   0  0  0  0  0  0  0  0  0  0  0  0
   -7.3513    1.1837    0.0000 C   0  0  0  0  0  0  0  0  0  0  0  0
   -6.7680    1.7670    0.0000 C   0  0  0  0  0  0  0  0  0  0  0  0
   -5.9711    1.5535    0.0000 C   0  0  0  0  0  0  0  0  0  0  0  0
   -3.3669    0.1160    0.0000 O   0  0  0  0  0  0  0  0  0  0  0  0
    3.6610    4.1338    0.0000 O   0  0  0  0  0  0  0  0  0  0  0  0
    4.9517    2.3736    0.0000 C   0  0  0  0  0  0  0  0  0  0  0  0
    4.3906    1.7688    0.0000 O   0  0  0  0  0  0  0  0  0  0  0  0
    3.5862    1.9524    0.0000 C   0  0  0  0  0  0  0  0  0  0  0  0
    5.7560    2.1900    0.0000 C   0  0  0  0  0  0  0  0  0  0  0  0
    6.8035    1.2180    0.0000 N   0  0  0  0  0  0  0  0  0  0  0  0
    7.0467    0.4297    0.0000 C   0  0  0  0  0  0  0  0  0  0  0  0
    6.4017   -0.0847    0.0000 C   0  0  0  0  0  0  0  0  0  0  0  0
    6.4017   -0.9097    0.0000 C   0  0  0  0  0  0  0  0  0  0  0  0
    5.6872   -1.3222    0.0000 C   0  0  0  0  0  0  0  0  0  0  0  0
    4.9727   -0.9097    0.0000 C   0  0  0  0  0  0  0  0  0  0  0  0
    4.2583   -1.3222    0.0000 Cl  0  0  0  0  0  0  0  0  0  0  0  0
    4.9727   -0.0847    0.0000 C   0  0  0  0  0  0  0  0  0  0  0  0
    5.6872    0.3278    0.0000 C   0  0  0  0  0  0  0  0  0  0  0  0
  1  2  1  0      
  2  3  2  0      
  3  4  1  0      
  4  5  2  0      
  5  6  1  0      
  6  7  1  0      
  7  8  1  0      
  6  9  2  0      
  2  9  1  0      
  9 10  1  0      
 10 11  2  0      
 11 12  1  0      
 12 13  1  0      
 13 14  1  0      
 14 15  2  0      
 15 16  1  0      
 16 17  1  0      
 17 18  1  0      
 18 19  2  0      
 19 20  1  0      
 20 21  2  0      
 21 22  1  0      
 22 23  1  0      
 23 24  1  0      
 24 25  1  0      
 25 26  1  0      
 26 27  1  0      
 27 28  1  0      
 28 29  1  0      
 29 30  1  0      
 30 31  1  0      
 31 32  1  0      
 32 33  1  0      
 33 34  1  0      
 34 35  1  0      
 35 36  1  0      
 36 37  2  0      
 37 38  1  0      
 38 39  1  0      
 39 40  1  0      
 40 41  1  0      
 41 42  1  0      
 42 43  1  0      
 43 44  1  0      
 44 45  1  0      
 45 46  1  0      
 41 46  1  0      
 46 47  2  0      
 44 48  2  0      
 40 49  1  0      
 37 49  1  0      
 49 50  2  0      
 39 51  2  0      
 38 52  2  0      
 52 53  1  0      
 53 54  2  0      
 36 54  1  0      
 33 55  2  0      
 22 56  2  0      
 21 57  1  0      
 57 58  1  0      
 58 59  1  0      
 57 60  2  0      
 18 60  1  0      
 16 61  2  0      
 13 62  2  0      
 61 62  1  0      
 62 63  1  0      
 63 64  2  0      
 10 64  1  0      
 64 65  1  0      
 65 66  2  0      
 66 67  1  0      
 66 68  1  0      
 68 69  2  0      
 63 69  1  0      
M  END

>  <RackCode>
HYCPK72336

>  <Cat. No.>
HY-141512

>  <Product Name>
JB170

>  <ROW>
A

>  <COLUMN>
11

>  <CAS No.>
2705844-82-0

>  <MWt>
963.36

>  <Target>
Aurora Kinase; PROTACs

>  <Saltdate>


>  <Smiles>
FC1=CC=CC(OC)=C1C2=NCC3=C(C4=C2C=C(C=C4)Cl)N=C(NC5=CC=C(C(OC)=C5)C(NCCOCCOCCNC(COC6=C7C(C(N(C7=O)C8CCC(NC8=O)=O)=O)=CC=C6)=O)=O)N=C3

>  <Solvent>
DMSO Solution

>  <Batch No.>
123480

>  <Quantity>
10mM  * 50uL

>  <Pathway>
Cell Cycle/DNA Damage; Epigenetics; PROTAC

>  <Synonyms>


>  <Formula>
C48H44ClFN8O11

>  <Research_Area>
Cancer

>  <Clinical_Information>
No Development Reported

>  <SUPPLIER>
MedChemExpress

$$$$
Untitled Document
  ChemDraw05201613072D

 27 29  0  0  0  0  0  0  0  0999 V2000
   -3.1353   -0.6188    0.0000 C   0  0  0  0  0  0  0  0  0  0  0  0
   -2.4209   -0.2063    0.0000 C   0  0  0  0  0  0  0  0  0  0  0  0
   -1.7064   -0.6188    0.0000 C   0  0  0  0  0  0  0  0  0  0  0  0
   -0.9920   -0.2063    0.0000 C   0  0  0  0  0  0  0  0  0  0  0  0
   -0.9920    0.6188    0.0000 C   0  0  0  0  0  0  0  0  0  0  0  0
   -1.7064    1.0313    0.0000 C   0  0  0  0  0  0  0  0  0  0  0  0
   -2.4209    0.6188    0.0000 C   0  0  0  0  0  0  0  0  0  0  0  0
   -3.8498   -1.0313    0.0000 N   0  0  0  0  0  0  0  0  0  0  0  0
   -1.7064    1.8562    0.0000 F   0  0  0  0  0  0  0  0  0  0  0  0
   -0.2775   -0.6188    0.0000 O   0  0  0  0  0  0  0  0  0  0  0  0
    1.8658    0.6188    0.0000 C   0  0  0  0  0  0  0  0  0  0  0  0
    1.8658   -0.2063    0.0000 C   0  0  0  0  0  0  0  0  0  0  0  0
    2.6504   -0.4612    0.0000 C   0  0  0  0  0  0  0  0  0  0  0  0
    3.1353    0.2063    0.0000 C   0  0  0  0  0  0  0  0  0  0  0  0
    2.6504    0.8737    0.0000 S   0  0  0  0  0  0  0  0  0  0  0  0
    1.1514   -0.6188    0.0000 C   0  0  0  0  0  0  0  0  0  0  0  0
    0.4369   -0.2063    0.0000 C   0  0  0  0  0  0  0  0  0  0  0  0
    0.4369    0.6188    0.0000 C   0  0  0  0  0  0  0  0  0  0  0  0
    1.1514    1.0313    0.0000 C   0  0  0  0  0  0  0  0  0  0  0  0
    3.2635    1.4257    0.0000 O   0  0  0  0  0  0  0  0  0  0  0  0
    2.4789    1.6807    0.0000 O   0  0  0  0  0  0  0  0  0  0  0  0
    2.9053   -1.2458    0.0000 O   0  0  0  0  0  0  0  0  0  0  0  0
    3.8498   -0.2063    0.0000 F   0  0  0  0  0  0  0  0  0  0  0  0
    3.8498    0.6188    0.0000 F   0  0  0  0  0  0  0  0  0  0  0  0
    1.1514   -1.4438    0.0000 C   0  0  0  0  0  0  0  0  0  0  0  0
    1.8658   -1.8562    0.0000 F   0  0  0  0  0  0  0  0  0  0  0  0
    0.4369   -1.8562    0.0000 F   0  0  0  0  0  0  0  0  0  0  0  0
  1  2  1  0      
  2  3  1  0      
  3  4  2  0      
  4  5  1  0      
  5  6  2  0      
  6  7  1  0      
  2  7  2  0      
  1  8  3  0      
  6  9  1  0      
 11 12  1  0      
 12 13  1  0      
 13 14  1  0      
 14 15  1  0      
 11 15  1  0      
 16 17  1  0      
 17 18  2  0      
 18 19  1  0      
 11 19  2  0      
 12 16  2  0      
 15 20  2  0      
 15 21  2  0      
 13 22  1  6      
 14 23  1  0      
 14 24  1  0      
 25 26  1  0      
 25 27  1  0      
 16 25  1  0      
 10 17  1  0      
  4 10  1  0      
M  END

>  <RackCode>
HYCPK72336

>  <Cat. No.>
HY-19949

>  <Product Name>
HIF-2¦Á-IN-1

>  <ROW>
B

>  <COLUMN>
11

>  <CAS No.>
1799948-06-3

>  <MWt>
405.30

>  <Target>
HIF/HIF Prolyl-Hydroxylase

>  <Saltdate>
Free Base

>  <Smiles>
N#CC1=CC(F)=CC(OC2=CC=C3C([C@@H](O)C(F)(F)S3(=O)=O)=C2C(F)F)=C1

>  <Solvent>
DMSO Solution

>  <Batch No.>
85792

>  <Quantity>
10mM  * 50uL

>  <Pathway>
Metabolic Enzyme/Protease

>  <Synonyms>


>  <Formula>
C16H8F5NO4S

>  <Research_Area>
Metabolic Disease

>  <Clinical_Information>
No Development Reported

>  <SUPPLIER>
MedChemExpress

$$$$
Untitled Document
  ChemDraw10221514152D

 39 42  0  0  0  0  0  0  0  0999 V2000
    3.0328    0.8328    0.0000 C   0  0  0  0  0  0  0  0  0  0  0  0
    2.4900    1.4541    0.0000 C   0  0  0  0  0  0  0  0  0  0  0  0
    1.7314    1.1298    0.0000 C   0  0  0  0  0  0  0  0  0  0  0  0
    1.8054    0.3081    0.0000 C   0  0  0  0  0  0  0  0  0  0  0  0
    1.1604   -0.2062    0.0000 C   0  0  0  0  0  0  0  0  0  0  0  0
    1.1604   -1.0313    0.0000 C   0  0  0  0  0  0  0  0  0  0  0  0
    1.8054   -1.5456    0.0000 C   0  0  0  0  0  0  0  0  0  0  0  0
    2.6097   -1.3621    0.0000 C   0  0  0  0  0  0  0  0  0  0  0  0
    2.9676   -0.6188    0.0000 C   0  0  0  0  0  0  0  0  0  0  0  0
    2.6097    0.1245    0.0000 C   0  0  0  0  0  0  0  0  0  0  0  0
    0.4459   -1.4438    0.0000 C   0  0  0  0  0  0  0  0  0  0  0  0
   -0.2686   -1.0313    0.0000 C   0  0  0  0  0  0  0  0  0  0  0  0
   -0.2686   -0.2062    0.0000 C   0  0  0  0  0  0  0  0  0  0  0  0
    0.4459    0.2063    0.0000 C   0  0  0  0  0  0  0  0  0  0  0  0
   -0.2686   -1.8563    0.0000 C   0  0  0  0  0  0  0  0  0  0  0  0
    3.8545    0.9067    0.0000 O   0  0  0  0  0  0  0  0  0  0  0  0
    0.4459    1.0313    0.0000 C   0  0  0  0  0  0  0  0  0  0  0  0
    2.6736    2.2584    0.0000 C   0  0  0  0  0  0  0  0  0  0  0  0
   -0.2686   -2.6813    0.0000 C   0  0  0  0  0  0  0  0  0  0  0  0
   -0.9831   -2.2688    0.0000 C   0  0  0  0  0  0  0  0  0  0  0  0
    3.1241   -2.0071    0.0000 C   0  0  0  0  0  0  0  0  0  0  0  0
    3.9398   -1.8841    0.0000 O   0  0  0  0  0  0  0  0  0  0  0  0
    1.1604    0.6188    0.0000 O   0  0  0  0  0  0  0  0  0  0  0  0
    3.4347    0.1245    0.0000 O   0  0  0  0  0  0  0  0  0  0  0  0
   -1.8773   -1.9601    0.0000 C   0  0  0  0  0  0  0  0  0  0  0  0
   -2.7023   -1.9601    0.0000 C   0  0  0  0  0  0  0  0  0  0  0  0
   -3.1148   -2.6745    0.0000 C   0  0  0  0  0  0  0  0  0  0  0  0
   -3.9398   -2.6745    0.0000 C   0  0  0  0  0  0  0  0  0  0  0  0
   -1.4648   -2.6745    0.0000 O   0  0  0  0  0  0  0  0  0  0  0  0
   -1.3411   -1.0313    0.0000 O   0  0  0  0  0  0  0  0  0  0  0  0
   -0.9831    1.0313    0.0000 C   0  0  0  0  0  0  0  0  0  0  0  0
   -1.6975    1.4438    0.0000 C   0  0  0  0  0  0  0  0  0  0  0  0
   -1.6975    2.2688    0.0000 C   0  0  0  0  0  0  0  0  0  0  0  0
   -2.4120    2.6813    0.0000 C   0  0  0  0  0  0  0  0  0  0  0  0
   -0.2686    1.4438    0.0000 O   0  0  0  0  0  0  0  0  0  0  0  0
   -0.9831    0.2063    0.0000 O   0  0  0  0  0  0  0  0  0  0  0  0
    0.8584   -2.1582    0.0000 H   0  0  0  0  0  0  0  0  0  0  0  0
    1.1604   -1.8563    0.0000 H   0  0  0  0  0  0  0  0  0  0  0  0
    1.8054   -0.5169    0.0000 H   0  0  0  0  0  0  0  0  0  0  0  0
  1  2  1  0      
  2  3  2  0      
  3  4  1  0      
  4  5  1  0      
  5  6  1  0      
  6  7  1  0      
  7  8  2  0      
  8  9  1  0      
  9 10  1  0      
  1 10  1  0      
  4 10  1  0      
 11 12  1  0      
 12 13  1  0      
 13 14  1  0      
 11 15  1  0      
 12 15  1  0      
  5 14  1  0      
  6 11  1  0      
  1 16  2  0      
 14 17  1  1      
  2 18  1  0      
 15 19  1  0      
 15 20  1  0      
 21 22  1  0      
  8 21  1  0      
  5 23  1  1      
 10 24  1  6      
 25 26  1  0      
 26 27  1  0      
 27 28  1  0      
 25 29  2  0      
 25 30  1  0      
 12 30  1  1      
 31 32  1  0      
 32 33  1  0      
 33 34  1  0      
 31 35  2  0      
 31 36  1  0      
 13 36  1  6      
 11 37  1  1      
  6 38  1  6      
  4 39  1  1      
M  END

>  <RackCode>
HYCPK72336

>  <Cat. No.>
HY-18985

>  <Product Name>
Phorbol 12,13-dibutyrate

>  <ROW>
C

>  <COLUMN>
11

>  <CAS No.>
37558-16-0

>  <MWt>
504.61

>  <Target>
PKC

>  <Saltdate>
Free Base

>  <Smiles>
O=C1C(C)=C[C@@]2([H])[C@]3(O)[C@@]([C@@](C4(C)C)([H])[C@@]4(OC(CCC)=O)[C@H](OC(CCC)=O)[C@H]3C)([H])C=C(CO)C[C@]12O

>  <Solvent>
DMSO Solution

>  <Batch No.>
44826

>  <Quantity>
10mM  * 50uL

>  <Pathway>
Epigenetics; TGF-beta/Smad

>  <Synonyms>
Phorbol dibutyrate; PDBu

>  <Formula>
C28H40O8

>  <Research_Area>
Cancer

>  <Clinical_Information>
No Development Reported

>  <SUPPLIER>
MedChemExpress

$$$$
Untitled Document
  ChemDraw09191613342D

 18 19  0  0  0  0  0  0  0  0999 V2000
   -1.7862   -1.0313    0.0000 C   0  0  0  0  0  0  0  0  0  0  0  0
   -2.5006   -0.6188    0.0000 C   0  0  0  0  0  0  0  0  0  0  0  0
   -2.5006    0.2062    0.0000 C   0  0  0  0  0  0  0  0  0  0  0  0
   -1.7862    0.6187    0.0000 C   0  0  0  0  0  0  0  0  0  0  0  0
   -1.0717    0.2062    0.0000 C   0  0  0  0  0  0  0  0  0  0  0  0
   -1.0717   -0.6188    0.0000 O   0  0  0  0  0  0  0  0  0  0  0  0
   -1.7862   -1.8563    0.0000 O   0  0  0  0  0  0  0  0  0  0  0  0
   -3.2151    0.6187    0.0000 O   0  0  0  0  0  0  0  0  0  0  0  0
   -0.3572    0.6187    0.0000 C   0  0  0  0  0  0  0  0  0  0  0  0
    0.3572    0.2062    0.0000 C   0  0  0  0  0  0  0  0  0  0  0  0
    1.0717    0.6187    0.0000 C   0  0  0  0  0  0  0  0  0  0  0  0
    1.7862    0.2062    0.0000 C   0  0  0  0  0  0  0  0  0  0  0  0
    2.5006    0.6187    0.0000 C   0  0  0  0  0  0  0  0  0  0  0  0
    2.5006    1.4437    0.0000 C   0  0  0  0  0  0  0  0  0  0  0  0
    1.7862    1.8563    0.0000 C   0  0  0  0  0  0  0  0  0  0  0  0
    1.0717    1.4437    0.0000 C   0  0  0  0  0  0  0  0  0  0  0  0
    3.2151    1.8563    0.0000 O   0  0  0  0  0  0  0  0  0  0  0  0
    3.2151    0.2062    0.0000 O   0  0  0  0  0  0  0  0  0  0  0  0
  1  2  1  0      
  2  3  2  0      
  3  4  1  0      
  4  5  2  0      
  5  6  1  0      
  1  6  1  0      
  1  7  2  0      
  3  8  1  0      
  9 10  2  0      
 11 12  1  0      
 12 13  2  0      
 13 14  1  0      
 14 15  2  0      
 15 16  1  0      
 11 16  2  0      
 14 17  1  0      
 13 18  1  0      
 10 11  1  0      
  5  9  1  0      
M  END

>  <RackCode>
HYCPK72336

>  <Cat. No.>
HY-100618

>  <Product Name>
Hispidin

>  <ROW>
D

>  <COLUMN>
11

>  <CAS No.>
555-55-5

>  <MWt>
246.22

>  <Target>
Endogenous Metabolite; PKC

>  <Saltdate>


>  <Smiles>
O=C1C=C(O)C=C(/C=C/C2=CC=C(O)C(O)=C2)O1

>  <Solvent>
DMSO Solution

>  <Batch No.>
245484

>  <Quantity>
10mM  * 50uL

>  <Pathway>
Epigenetics; Metabolic Enzyme/Protease; TGF-beta/Smad

>  <Synonyms>


>  <Formula>
C13H10O5

>  <Research_Area>
Metabolic Disease; Cardiovascular Disease; Cancer

>  <Clinical_Information>
No Development Reported

>  <SUPPLIER>
MedChemExpress

$$$$
Untitled Document
  ChemDraw03051910582D

 22 23  0  0  0  0  0  0  0  0999 V2000
   -1.4289    1.8555    0.0000 N   0  0  0  0  0  0  0  0  0  0  0  0
   -1.4289    1.0305    0.0000 C   0  0  0  0  0  0  0  0  0  0  0  0
   -0.7145    0.6180    0.0000 N   0  0  0  0  0  0  0  0  0  0  0  0
   -0.0000    1.0305    0.0000 C   0  0  0  0  0  0  0  0  0  0  0  0
   -0.0000    1.8555    0.0000 C   0  0  0  0  0  0  0  0  0  0  0  0
   -0.7145    2.2680    0.0000 C   0  0  0  0  0  0  0  0  0  0  0  0
   -0.7145    3.0902    0.0000 N   0  0  0  0  0  0  0  0  0  0  0  0
    0.7120    2.2666    0.0000 Cl  0  0  0  0  0  0  0  0  0  0  0  0
   -2.1409    0.6195    0.0000 O   0  0  0  0  0  0  0  0  0  0  0  0
   -0.7145   -0.2041    0.0000 C   0  0  0  0  0  0  0  0  0  0  0  0
   -1.4289   -0.6166    0.0000 C   0  0  0  0  0  0  0  0  0  0  0  0
   -1.4289   -1.4416    0.0000 C   0  0  0  0  0  0  0  0  0  0  0  0
   -0.7145   -1.8541    0.0000 C   0  0  0  0  0  0  0  0  0  0  0  0
   -0.0000   -1.4416    0.0000 C   0  0  0  0  0  0  0  0  0  0  0  0
   -0.0000   -0.6166    0.0000 C   0  0  0  0  0  0  0  0  0  0  0  0
    0.7120   -1.8527    0.0000 C   0  0  0  0  0  0  0  0  0  0  0  0
    0.7120   -2.6777    0.0000 C   0  0  0  0  0  0  0  0  0  0  0  0
    1.4265   -3.0902    0.0000 C   0  0  0  0  0  0  0  0  0  0  0  0
    2.1409   -2.6777    0.0000 C   0  0  0  0  0  0  0  0  0  0  0  0
    2.1409   -1.8527    0.0000 C   0  0  0  0  0  0  0  0  0  0  0  0
    1.4265   -1.4402    0.0000 C   0  0  0  0  0  0  0  0  0  0  0  0
    1.2806   -0.2306    0.0000 Cl  0  0  0  0  0  0  0  0  0  0  0  0
  1  2  1  0      
  2  3  1  0      
  3  4  1  0      
  4  5  2  0      
  5  6  1  0      
  6  1  2  0      
  6  7  1  0      
  5  8  1  0      
  2  9  2  0      
  3 10  1  0      
 10 11  2  0      
 11 12  1  0      
 12 13  2  0      
 13 14  1  0      
 14 15  2  0      
 15 10  1  0      
 14 16  1  0      
 16 17  2  0      
 17 18  1  0      
 18 19  2  0      
 19 20  1  0      
 20 21  2  0      
 21 16  1  0      
M  END

>  <RackCode>
HYCPK72336

>  <Cat. No.>
HY-111558A

>  <Product Name>
Bobcat339 (hydrochloride)

>  <ROW>
E

>  <COLUMN>
11

>  <CAS No.>
2436747-44-1

>  <MWt>
334.20

>  <Target>
DNA Methyltransferase; TET Protein

>  <Saltdate>
Hydrochloride

>  <Smiles>
NC1=NC(N(C2=CC=CC(C3=CC=CC=C3)=C2)C=C1Cl)=O.Cl

>  <Solvent>
DMSO Solution

>  <Batch No.>
39042

>  <Quantity>
10mM  * 50uL

>  <Pathway>
Epigenetics

>  <Synonyms>


>  <Formula>
C16H13Cl2N3O

>  <Research_Area>
Cancer

>  <Clinical_Information>
No Development Reported

>  <SUPPLIER>
MedChemExpress

$$$$
Untitled Document
  ChemDraw12111812292D

 38 42  0  0  0  0  0  0  0  0999 V2000
    0.6592    0.0553    0.0000 N   0  0  0  0  0  0  0  0  0  0  0  0
    1.3737   -0.3572    0.0000 C   0  0  0  0  0  0  0  0  0  0  0  0
    1.3737   -1.1822    0.0000 C   0  0  0  0  0  0  0  0  0  0  0  0
    0.6592   -1.5947    0.0000 C   0  0  0  0  0  0  0  0  0  0  0  0
   -0.0553   -1.1822    0.0000 C   0  0  0  0  0  0  0  0  0  0  0  0
   -0.7697   -1.5947    0.0000 C   0  0  0  0  0  0  0  0  0  0  0  0
   -1.4842   -1.1822    0.0000 C   0  0  0  0  0  0  0  0  0  0  0  0
   -1.4842   -0.3572    0.0000 N   0  0  0  0  0  0  0  0  0  0  0  0
   -0.7697    0.0553    0.0000 C   0  0  0  0  0  0  0  0  0  0  0  0
   -0.0553   -0.3572    0.0000 C   0  0  0  0  0  0  0  0  0  0  0  0
    2.0881    0.0553    0.0000 O   0  0  0  0  0  0  0  0  0  0  0  0
   -1.4842   -2.8322    0.0000 C   0  0  0  0  0  0  0  0  0  0  0  0
   -0.7697   -2.4197    0.0000 C   0  0  0  0  0  0  0  0  0  0  0  0
   -0.0553   -2.8322    0.0000 C   0  0  0  0  0  0  0  0  0  0  0  0
   -0.0553   -3.6572    0.0000 C   0  0  0  0  0  0  0  0  0  0  0  0
   -0.7697   -4.0697    0.0000 C   0  0  0  0  0  0  0  0  0  0  0  0
   -1.4842   -3.6572    0.0000 N   0  0  0  0  0  0  0  0  0  0  0  0
    0.6592   -4.0697    0.0000 C   0  0  0  0  0  0  0  0  0  0  0  0
    2.0881   -1.5947    0.0000 C   0  0  0  0  0  0  0  0  0  0  0  0
   -0.7697    0.8803    0.0000 N   0  0  0  0  0  0  0  0  0  0  0  0
   -2.9131    2.1178    0.0000 N   0  0  0  0  0  0  0  0  0  0  0  0
   -2.1987    2.5303    0.0000 C   0  0  0  0  0  0  0  0  0  0  0  0
   -1.4842    2.1178    0.0000 C   0  0  0  0  0  0  0  0  0  0  0  0
   -1.4842    1.2928    0.0000 C   0  0  0  0  0  0  0  0  0  0  0  0
   -2.1987    0.8803    0.0000 C   0  0  0  0  0  0  0  0  0  0  0  0
   -2.9131    1.2928    0.0000 C   0  0  0  0  0  0  0  0  0  0  0  0
   -2.1987    0.0553    0.0000 O   0  0  0  0  0  0  0  0  0  0  0  0
   -2.9131   -0.3572    0.0000 C   0  0  0  0  0  0  0  0  0  0  0  0
   -0.7697    2.5303    0.0000 O   0  0  0  0  0  0  0  0  0  0  0  0
   -0.0553    2.1178    0.0000 C   0  0  0  0  0  0  0  0  0  0  0  0
    0.6592    2.5303    0.0000 C   0  0  0  0  0  0  0  0  0  0  0  0
    0.6592    3.3553    0.0000 C   0  0  0  0  0  0  0  0  0  0  0  0
    1.3737    3.7678    0.0000 C   0  0  0  0  0  0  0  0  0  0  0  0
    2.0881    3.3553    0.0000 C   0  0  0  0  0  0  0  0  0  0  0  0
    2.0881    2.5303    0.0000 C   0  0  0  0  0  0  0  0  0  0  0  0
    1.3737    2.1178    0.0000 C   0  0  0  0  0  0  0  0  0  0  0  0
    2.9131    3.3553    0.0000 F   0  0  0  0  0  0  0  0  0  0  0  0
    2.5006    4.0697    0.0000 F   0  0  0  0  0  0  0  0  0  0  0  0
  1  2  1  0      
  2  3  1  0      
  3  4  2  0      
  4  5  1  0      
  5  6  2  0      
  6  7  1  0      
  7  8  2  0      
  8  9  1  0      
  9 10  2  0      
  1 10  1  0      
  5 10  1  0      
  2 11  2  0      
 12 13  1  0      
 13 14  2  0      
 14 15  1  0      
 15 16  2  0      
 16 17  1  0      
 12 17  2  0      
 15 18  1  0      
  6 13  1  0      
  3 19  1  0      
 21 22  1  0      
 22 23  1  0      
 23 24  1  0      
 24 25  1  0      
 25 26  1  0      
 21 26  1  0      
 27 28  1  0      
 25 27  1  1      
 29 30  1  0      
 31 32  1  0      
 32 33  1  0      
 33 34  1  0      
 34 35  1  0      
 35 36  1  0      
 31 36  1  0      
 34 37  1  0      
 34 38  1  0      
 30 31  1  0      
 23 29  1  1      
 24 20  1  6      
  9 20  1  0      
M  END

>  <RackCode>
HYCPK72336

>  <Cat. No.>
HY-114204

>  <Product Name>
GSK8814

>  <ROW>
F

>  <COLUMN>
11

>  <CAS No.>
1997369-78-4

>  <MWt>
527.61

>  <Target>
Epigenetic Reader Domain

>  <Saltdate>


>  <Smiles>
O=C1NC2=C(N[C@H]3[C@H](OCC4CCC(F)(F)CC4)CNC[C@@H]3OC)N=CC(C5=CC(C)=CN=C5)=C2C=C1C

>  <Solvent>
DMSO Solution

>  <Batch No.>
217747

>  <Quantity>
10mM  * 50uL

>  <Pathway>
Epigenetics

>  <Synonyms>


>  <Formula>
C28H35F2N5O3

>  <Research_Area>
Cancer

>  <Clinical_Information>
No Development Reported

>  <SUPPLIER>
MedChemExpress

$$$$
Untitled Document
  ChemDraw09121709472D

 52 57  0  0  0  0  0  0  0  0999 V2000
   -3.3652    2.0977    0.0000 C   0  0  0  0  0  0  0  0  0  0  0  0
   -3.5380    1.2851    0.0000 O   0  0  0  0  0  0  0  0  0  0  0  0
   -2.8278    0.8750    0.0000 C   0  0  0  0  0  0  0  0  0  0  0  0
   -2.2071    1.4232    0.0000 N   0  0  0  0  0  0  0  0  0  0  0  0
   -2.5429    2.1794    0.0000 C   0  0  0  0  0  0  0  0  0  0  0  0
   -3.9141    2.7104    0.0000 C   0  0  0  0  0  0  0  0  0  0  0  0
   -2.1315    2.8919    0.0000 C   0  0  0  0  0  0  0  0  0  0  0  0
   -3.6572    3.4947    0.0000 C   0  0  0  0  0  0  0  0  0  0  0  0
   -4.2081    4.1095    0.0000 C   0  0  0  0  0  0  0  0  0  0  0  0
   -5.0162    3.9398    0.0000 C   0  0  0  0  0  0  0  0  0  0  0  0
   -5.2731    3.1554    0.0000 C   0  0  0  0  0  0  0  0  0  0  0  0
   -4.7223    2.5407    0.0000 C   0  0  0  0  0  0  0  0  0  0  0  0
   -1.3051    2.8919    0.0000 C   0  0  0  0  0  0  0  0  0  0  0  0
   -0.8935    3.6047    0.0000 C   0  0  0  0  0  0  0  0  0  0  0  0
   -1.3048    4.3171    0.0000 C   0  0  0  0  0  0  0  0  0  0  0  0
   -2.1268    4.3171    0.0000 C   0  0  0  0  0  0  0  0  0  0  0  0
   -2.5378    3.6052    0.0000 C   0  0  0  0  0  0  0  0  0  0  0  0
   -2.7463    0.0561    0.0000 S   0  0  0  0  0  0  0  0  0  0  0  0
   -1.9965   -0.2824    0.0000 C   0  0  0  0  0  0  0  0  0  0  0  0
   -2.5853   -1.5824    0.0000 C   0  0  0  0  0  0  0  0  0  0  0  0
   -2.5040   -2.4034    0.0000 C   0  0  0  0  0  0  0  0  0  0  0  0
   -1.7517   -2.7487    0.0000 O   0  0  0  0  0  0  0  0  0  0  0  0
   -1.0809   -2.2625    0.0000 C   0  0  0  0  0  0  0  0  0  0  0  0
   -1.1605   -1.4411    0.0000 O   0  0  0  0  0  0  0  0  0  0  0  0
   -1.9148   -1.1010    0.0000 C   0  0  0  0  0  0  0  0  0  0  0  0
   -3.1738   -2.8811    0.0000 C   0  0  0  0  0  0  0  0  0  0  0  0
   -0.3308   -2.6005    0.0000 C   0  0  0  0  0  0  0  0  0  0  0  0
   -3.9254   -2.5386    0.0000 C   0  0  0  0  0  0  0  0  0  0  0  0
   -4.5976   -3.0181    0.0000 C   0  0  0  0  0  0  0  0  0  0  0  0
   -4.5186   -3.8393    0.0000 C   0  0  0  0  0  0  0  0  0  0  0  0
   -3.7667   -4.1818    0.0000 C   0  0  0  0  0  0  0  0  0  0  0  0
   -3.0948   -3.7023    0.0000 C   0  0  0  0  0  0  0  0  0  0  0  0
   -0.2479   -3.4218    0.0000 C   0  0  0  0  0  0  0  0  0  0  0  0
    0.5040   -3.7613    0.0000 C   0  0  0  0  0  0  0  0  0  0  0  0
    1.1742   -3.2794    0.0000 C   0  0  0  0  0  0  0  0  0  0  0  0
    1.0919   -2.4581    0.0000 C   0  0  0  0  0  0  0  0  0  0  0  0
    0.3395   -2.1186    0.0000 C   0  0  0  0  0  0  0  0  0  0  0  0
   -5.1884   -4.3171    0.0000 C   0  0  0  0  0  0  0  0  0  0  0  0
   -5.9369   -3.9757    0.0000 O   0  0  0  0  0  0  0  0  0  0  0  0
    1.9241   -3.6177    0.0000 N   0  0  0  0  0  0  0  0  0  0  0  0
    2.6140   -3.1696    0.0000 C   0  0  0  0  0  0  0  0  0  0  0  0
    3.3470   -3.5432    0.0000 O   0  0  0  0  0  0  0  0  0  0  0  0
    2.5709   -2.3481    0.0000 C   0  0  0  0  0  0  0  0  0  0  0  0
    3.2608   -1.9001    0.0000 C   0  0  0  0  0  0  0  0  0  0  0  0
    3.2178   -1.0786    0.0000 C   0  0  0  0  0  0  0  0  0  0  0  0
    3.9077   -0.6306    0.0000 C   0  0  0  0  0  0  0  0  0  0  0  0
    3.8647    0.1909    0.0000 C   0  0  0  0  0  0  0  0  0  0  0  0
    4.5549    0.6390    0.0000 C   0  0  0  0  0  0  0  0  0  0  0  0
    4.5119    1.4605    0.0000 C   0  0  0  0  0  0  0  0  0  0  0  0
    3.7785    1.8340    0.0000 O   0  0  0  0  0  0  0  0  0  0  0  0
    5.2018    1.9086    0.0000 N   0  0  0  0  0  0  0  0  0  0  0  0
    5.9369    1.5341    0.0000 O   0  0  0  0  0  0  0  0  0  0  0  0
  1  2  1  0      
  2  3  1  0      
  3  4  2  0      
  4  5  1  0      
  5  1  2  0      
  1  6  1  0      
  5  7  1  0      
  6  8  2  0      
  8  9  1  0      
  9 10  2  0      
 10 11  1  0      
 11 12  2  0      
 12  6  1  0      
  7 13  2  0      
 13 14  1  0      
 14 15  2  0      
 15 16  1  0      
 16 17  2  0      
 17  7  1  0      
  3 18  1  0      
 18 19  1  0      
 20 21  1  0      
 21 22  1  0      
 22 23  1  0      
 23 24  1  0      
 24 25  1  0      
 25 20  1  0      
 25 19  1  6      
 21 26  1  6      
 23 27  1  6      
 26 28  2  0      
 28 29  1  0      
 29 30  2  0      
 30 31  1  0      
 31 32  2  0      
 32 26  1  0      
 27 33  2  0      
 33 34  1  0      
 34 35  2  0      
 35 36  1  0      
 36 37  2  0      
 37 27  1  0      
 30 38  1  0      
 38 39  1  0      
 35 40  1  0      
 40 41  1  0      
 41 42  2  0      
 41 43  1  0      
 43 44  1  0      
 44 45  1  0      
 45 46  1  0      
 46 47  1  0      
 47 48  1  0      
 48 49  1  0      
 49 50  2  0      
 49 51  1  0      
 51 52  1  0      
M  END

>  <RackCode>
HYCPK72336

>  <Cat. No.>
HY-13428

>  <Product Name>
Tubacin

>  <ROW>
G

>  <COLUMN>
11

>  <CAS No.>
537049-40-4

>  <MWt>
721.86

>  <Target>
Beta-lactamase; HDAC; Virus Protease

>  <Saltdate>
Free Base

>  <Smiles>
OCC(C=C1)=CC=C1[C@@H]2C[C@H](CSC3=NC(C4=CC=CC=C4)=C(C5=CC=CC=C5)O3)O[C@H](C6=CC=C(NC(CCCCCCC(NO)=O)=O)C=C6)O2

>  <Solvent>
DMSO Solution

>  <Batch No.>
114254

>  <Quantity>
10mM  * 50uL

>  <Pathway>
Anti-infection; Cell Cycle/DNA Damage; Epigenetics

>  <Synonyms>


>  <Formula>
C41H43N3O7S

>  <Research_Area>
Cancer

>  <Clinical_Information>
No Development Reported

>  <SUPPLIER>
MedChemExpress

$$$$
Untitled Document
  ChemDraw05302208492D

 29 32  0  0  0  0  0  0  0  0999 V2000
   -1.7862   -2.0625    0.0000 C   0  0  0  0  0  0  0  0  0  0  0  0
   -1.0717   -1.6500    0.0000 N   0  0  0  0  0  0  0  0  0  0  0  0
   -1.0717   -0.8250    0.0000 N   0  0  0  0  0  0  0  0  0  0  0  0
   -1.7862   -0.4125    0.0000 C   0  0  0  0  0  0  0  0  0  0  0  0
   -2.5006   -0.8250    0.0000 C   0  0  0  0  0  0  0  0  0  0  0  0
   -3.2151   -0.4125    0.0000 C   0  0  0  0  0  0  0  0  0  0  0  0
   -3.9296   -0.8250    0.0000 C   0  0  0  0  0  0  0  0  0  0  0  0
   -3.9296   -1.6500    0.0000 C   0  0  0  0  0  0  0  0  0  0  0  0
   -3.2151   -2.0625    0.0000 C   0  0  0  0  0  0  0  0  0  0  0  0
   -2.5006   -1.6500    0.0000 C   0  0  0  0  0  0  0  0  0  0  0  0
    0.3572   -1.6500    0.0000 C   0  0  0  0  0  0  0  0  0  0  0  0
   -0.3572   -2.0625    0.0000 C   0  0  0  0  0  0  0  0  0  0  0  0
    0.3572   -0.8250    0.0000 O   0  0  0  0  0  0  0  0  0  0  0  0
    1.0717   -2.0625    0.0000 N   0  0  0  0  0  0  0  0  0  0  0  0
   -1.7862   -2.8875    0.0000 O   0  0  0  0  0  0  0  0  0  0  0  0
   -1.7862    0.4125    0.0000 C   0  0  0  0  0  0  0  0  0  0  0  0
   -1.0717    0.8250    0.0000 C   0  0  0  0  0  0  0  0  0  0  0  0
   -1.0717    1.6500    0.0000 C   0  0  0  0  0  0  0  0  0  0  0  0
   -1.7862    2.0625    0.0000 C   0  0  0  0  0  0  0  0  0  0  0  0
   -2.5006    1.6500    0.0000 C   0  0  0  0  0  0  0  0  0  0  0  0
   -2.5006    0.8250    0.0000 C   0  0  0  0  0  0  0  0  0  0  0  0
   -1.7862    2.8875    0.0000 Cl  0  0  0  0  0  0  0  0  0  0  0  0
    1.7862   -1.6500    0.0000 C   0  0  0  0  0  0  0  0  0  0  0  0
    2.5006   -2.0625    0.0000 C   0  0  0  0  0  0  0  0  0  0  0  0
    3.2151   -1.6500    0.0000 C   0  0  0  0  0  0  0  0  0  0  0  0
    3.2151   -0.8250    0.0000 C   0  0  0  0  0  0  0  0  0  0  0  0
    2.5006   -0.4125    0.0000 C   0  0  0  0  0  0  0  0  0  0  0  0
    1.7862   -0.8250    0.0000 C   0  0  0  0  0  0  0  0  0  0  0  0
    3.9296   -2.0625    0.0000 Cl  0  0  0  0  0  0  0  0  0  0  0  0
  1  2  1  0      
  2  3  1  0      
  3  4  2  0      
  4  5  1  0      
  5  6  1  0      
  6  7  2  0      
  7  8  1  0      
  8  9  2  0      
  9 10  1  0      
  1 10  1  0      
  5 10  2  0      
 11 12  1  0      
 11 13  2  0      
 11 14  1  0      
  2 12  1  0      
  1 15  2  0      
 16 17  1  0      
 17 18  2  0      
 18 19  1  0      
 19 20  2  0      
 20 21  1  0      
 16 21  2  0      
 19 22  1  0      
  4 16  1  0      
 23 24  1  0      
 24 25  2  0      
 25 26  1  0      
 26 27  2  0      
 27 28  1  0      
 23 28  2  0      
 25 29  1  0      
 14 23  1  0      
M  END

>  <RackCode>
HYCPK72336

>  <Cat. No.>
HY-147027

>  <Product Name>
PARP-1-IN-2

>  <ROW>
H

>  <COLUMN>
11

>  <CAS No.>
684234-55-7

>  <MWt>
424.28

>  <Target>
Apoptosis; Caspase; PARP

>  <Saltdate>


>  <Smiles>
O=C(NC1=CC=CC(Cl)=C1)CN(N=C(C2=CC=C(Cl)C=C2)C3=C4C=CC=C3)C4=O

>  <Solvent>
DMSO Solution

>  <Batch No.>
154030

>  <Quantity>
10mM  * 50uL

>  <Pathway>
Apoptosis; Cell Cycle/DNA Damage; Epigenetics

>  <Synonyms>


>  <Formula>
C22H15Cl2N3O2

>  <Research_Area>
Cancer

>  <Clinical_Information>
No Development Reported

>  <SUPPLIER>
MedChemExpress

$$$$
Untitled Document
  ChemDraw10171716582D

 22 23  0  0  0  0  0  0  0  0999 V2000
    0.1105   -0.2062    0.0000 C   0  0  0  0  0  0  0  0  0  0  0  0
   -0.7145   -0.2062    0.0000 C   0  0  0  0  0  0  0  0  0  0  0  0
   -0.3020    0.5082    0.0000 C   0  0  0  0  0  0  0  0  0  0  0  0
    5.8263   -0.2062    0.0000 C   0  0  0  0  0  0  0  0  0  0  0  0
    5.1118   -0.6188    0.0000 C   0  0  0  0  0  0  0  0  0  0  0  0
    4.3974   -0.2062    0.0000 C   0  0  0  0  0  0  0  0  0  0  0  0
    3.6829   -0.6188    0.0000 C   0  0  0  0  0  0  0  0  0  0  0  0
    2.9684   -0.2062    0.0000 C   0  0  0  0  0  0  0  0  0  0  0  0
    2.2539   -0.6188    0.0000 C   0  0  0  0  0  0  0  0  0  0  0  0
    1.5395   -0.2062    0.0000 C   0  0  0  0  0  0  0  0  0  0  0  0
    0.8250   -0.6188    0.0000 C   0  0  0  0  0  0  0  0  0  0  0  0
    5.8263    0.6188    0.0000 O   0  0  0  0  0  0  0  0  0  0  0  0
    6.5408   -0.6188    0.0000 O   0  0  0  0  0  0  0  0  0  0  0  0
   -1.4289   -0.6188    0.0000 C   0  0  0  0  0  0  0  0  0  0  0  0
   -2.1434   -0.2062    0.0000 C   0  0  0  0  0  0  0  0  0  0  0  0
   -2.9684   -0.2062    0.0000 C   0  0  0  0  0  0  0  0  0  0  0  0
   -2.5559    0.5082    0.0000 C   0  0  0  0  0  0  0  0  0  0  0  0
   -3.6829   -0.6188    0.0000 C   0  0  0  0  0  0  0  0  0  0  0  0
   -4.3974   -0.2062    0.0000 C   0  0  0  0  0  0  0  0  0  0  0  0
   -5.1118   -0.6188    0.0000 C   0  0  0  0  0  0  0  0  0  0  0  0
   -5.8263   -0.2062    0.0000 C   0  0  0  0  0  0  0  0  0  0  0  0
   -6.5408   -0.6188    0.0000 C   0  0  0  0  0  0  0  0  0  0  0  0
  1  2  1  0      
  2  3  1  0      
  1  3  1  0      
  4  5  1  0      
  5  6  1  0      
  6  7  1  0      
  7  8  1  0      
  8  9  1  0      
  9 10  1  0      
 10 11  1  0      
  4 12  2  0      
  4 13  1  0      
  1 11  1  0      
 15 16  1  0      
 16 17  1  0      
 15 17  1  0      
 18 19  1  0      
 19 20  1  0      
 20 21  1  0      
 21 22  1  0      
 16 18  1  0      
 14 15  1  0      
  2 14  1  0      
M  END

>  <RackCode>
HYCPK72336

>  <Cat. No.>
HY-108599

>  <Product Name>
DCP-LA

>  <ROW>
I

>  <COLUMN>
11

>  <CAS No.>
28399-31-7

>  <MWt>
308.50

>  <Target>
Apoptosis; CaMK; Phosphatase; PKC

>  <Saltdate>
Free Acid

>  <Smiles>
O=C(O)CCCCCCCC1C(CC2C(CCCCC)C2)C1

>  <Solvent>
DMSO Solution

>  <Batch No.>
39459

>  <Quantity>
10mM  * 50uL

>  <Pathway>
Apoptosis; Epigenetics; Metabolic Enzyme/Protease; Neuronal Signaling; TGF-beta/Smad

>  <Synonyms>
FR236924

>  <Formula>
C20H36O2

>  <Research_Area>
Neurological Disease

>  <Clinical_Information>
No Development Reported

>  <SUPPLIER>
MedChemExpress

$$$$
Untitled Document
  ChemDraw03041910002D

 19 22  0  0  0  0  0  0  0  0999 V2000
   -0.3572    0.9971    0.0000 N   0  0  0  0  0  0  0  0  0  0  0  0
    0.3572    0.5846    0.0000 C   0  0  0  0  0  0  0  0  0  0  0  0
    0.3572   -0.2404    0.0000 C   0  0  0  0  0  0  0  0  0  0  0  0
   -0.3572   -0.6529    0.0000 N   0  0  0  0  0  0  0  0  0  0  0  0
   -1.0717   -0.2404    0.0000 C   0  0  0  0  0  0  0  0  0  0  0  0
   -1.7862   -0.6529    0.0000 C   0  0  0  0  0  0  0  0  0  0  0  0
   -2.5007   -0.2404    0.0000 C   0  0  0  0  0  0  0  0  0  0  0  0
   -2.5007    0.5846    0.0000 C   0  0  0  0  0  0  0  0  0  0  0  0
   -1.7862    0.9971    0.0000 C   0  0  0  0  0  0  0  0  0  0  0  0
   -1.0717    0.5846    0.0000 C   0  0  0  0  0  0  0  0  0  0  0  0
    0.9703    1.1367    0.0000 C   0  0  0  0  0  0  0  0  0  0  0  0
    0.6348    1.8904    0.0000 C   0  0  0  0  0  0  0  0  0  0  0  0
   -0.1857    1.8041    0.0000 C   0  0  0  0  0  0  0  0  0  0  0  0
    1.0717   -1.4779    0.0000 C   0  0  0  0  0  0  0  0  0  0  0  0
    1.0717   -0.6529    0.0000 C   0  0  0  0  0  0  0  0  0  0  0  0
    1.7862   -0.2404    0.0000 C   0  0  0  0  0  0  0  0  0  0  0  0
    2.5007   -0.6529    0.0000 C   0  0  0  0  0  0  0  0  0  0  0  0
    2.5007   -1.4779    0.0000 C   0  0  0  0  0  0  0  0  0  0  0  0
    1.7862   -1.8904    0.0000 N   0  0  0  0  0  0  0  0  0  0  0  0
  1  2  1  0      
  2  3  1  0      
  3  4  1  0      
  4  5  1  0      
  5  6  1  0      
  6  7  2  0      
  7  8  1  0      
  8  9  2  0      
  9 10  1  0      
  1 10  1  0      
  5 10  2  0      
 11 12  1  0      
 12 13  2  0      
 13  1  1  0      
 11  2  2  0      
 14 15  1  0      
 15 16  2  0      
 16 17  1  0      
 17 18  2  0      
 18 19  1  0      
 14 19  2  0      
  3 15  1  0      
M  END

>  <RackCode>
HYCPK72336

>  <Cat. No.>
HY-115453

>  <Product Name>
UBCS039

>  <ROW>
J

>  <COLUMN>
11

>  <CAS No.>
358721-70-7

>  <MWt>
247.29

>  <Target>
Autophagy; Sirtuin

>  <Saltdate>
Free Base

>  <Smiles>
N12C(C(C3=CC=CN=C3)NC4=C2C=CC=C4)=CC=C1

>  <Solvent>
DMSO Solution

>  <Batch No.>
64538

>  <Quantity>
10mM  * 50uL

>  <Pathway>
Autophagy; Cell Cycle/DNA Damage; Epigenetics

>  <Synonyms>


>  <Formula>
C16H13N3

>  <Research_Area>
Cancer

>  <Clinical_Information>
No Development Reported

>  <SUPPLIER>
MedChemExpress

$$$$
Untitled Document
  ChemDraw07291617222D

 33 37  0  0  0  0  0  0  0  0999 V2000
   -1.2790   -0.7445    0.0000 C   0  0  0  0  0  0  0  0  0  0  0  0
   -1.2801   -1.5719    0.0000 C   0  0  0  0  0  0  0  0  0  0  0  0
   -0.5653   -1.9848    0.0000 C   0  0  0  0  0  0  0  0  0  0  0  0
   -0.5671   -0.3318    0.0000 C   0  0  0  0  0  0  0  0  0  0  0  0
   -1.9936   -0.3322    0.0000 O   0  0  0  0  0  0  0  0  0  0  0  0
   -1.9938    0.4928    0.0000 C   0  0  0  0  0  0  0  0  0  0  0  0
   -1.9949   -1.9838    0.0000 C   0  0  0  0  0  0  0  0  0  0  0  0
   -2.7455   -1.6510    0.0000 C   0  0  0  0  0  0  0  0  0  0  0  0
   -3.2981   -2.2637    0.0000 O   0  0  0  0  0  0  0  0  0  0  0  0
   -2.8861   -2.9784    0.0000 N   0  0  0  0  0  0  0  0  0  0  0  0
   -2.0791   -2.8074    0.0000 C   0  0  0  0  0  0  0  0  0  0  0  0
   -2.9174   -0.8441    0.0000 C   0  0  0  0  0  0  0  0  0  0  0  0
   -1.4654   -3.3588    0.0000 C   0  0  0  0  0  0  0  0  0  0  0  0
    0.1483   -0.7409    0.0000 C   0  0  0  0  0  0  0  0  0  0  0  0
    0.1471   -1.5694    0.0000 C   0  0  0  0  0  0  0  0  0  0  0  0
    0.8600   -1.9823    0.0000 N   0  0  0  0  0  0  0  0  0  0  0  0
    1.5787   -1.5714    0.0000 C   0  0  0  0  0  0  0  0  0  0  0  0
    1.5799   -0.7429    0.0000 C   0  0  0  0  0  0  0  0  0  0  0  0
    0.4433    1.2179    0.0000 C   0  0  0  0  0  0  0  0  0  0  0  0
   -0.3817    1.2179    0.0000 C   0  0  0  0  0  0  0  0  0  0  0  0
    0.8624    0.4996    0.0000 N   0  0  0  0  0  0  0  0  0  0  0  0
    0.8641   -0.3227    0.0000 C   0  0  0  0  0  0  0  0  0  0  0  0
    0.8541    1.9333    0.0000 C   0  0  0  0  0  0  0  0  0  0  0  0
    1.6558    0.7179    0.0000 C   0  0  0  0  0  0  0  0  0  0  0  0
    2.0641    1.4346    0.0000 C   0  0  0  0  0  0  0  0  0  0  0  0
    2.8898    1.4373    0.0000 C   0  0  0  0  0  0  0  0  0  0  0  0
    3.2981    2.1499    0.0000 C   0  0  0  0  0  0  0  0  0  0  0  0
    2.8851    2.8642    0.0000 O   0  0  0  0  0  0  0  0  0  0  0  0
    2.0594    2.8615    0.0000 C   0  0  0  0  0  0  0  0  0  0  0  0
    1.6466    2.1444    0.0000 C   0  0  0  0  0  0  0  0  0  0  0  0
    2.2391    0.1346    0.0000 N   0  0  0  0  0  0  0  0  0  0  0  0
    0.4400    2.6469    0.0000 O   0  0  0  0  0  0  0  0  0  0  0  0
    0.8511    3.3588    0.0000 C   0  0  0  0  0  0  0  0  0  0  0  0
  1  2  2  0      
  2  3  1  0      
  3 15  2  0      
 14  4  2  0      
  4  1  1  0      
  1  5  1  0      
  5  6  1  0      
  2  7  1  0      
  7  8  2  0      
  8  9  1  0      
  9 10  1  0      
 10 11  2  0      
 11  7  1  0      
  8 12  1  0      
 11 13  1  0      
 14 15  1  0      
 14 22  1  0      
 15 16  1  0      
 16 17  2  0      
 17 18  1  0      
 18 22  2  0      
 21 19  1  0      
 19 20  1  6      
 21 22  1  0      
 19 23  1  0      
 23 32  1  0      
 21 24  1  0      
 24 25  1  0      
 25 26  1  0      
 25 30  1  0      
 26 27  1  0      
 27 28  1  0      
 28 29  1  0      
 29 30  1  0      
 24 31  2  0      
 18 31  1  0      
 32 33  1  0      
M  END

>  <RackCode>
HYCPK72336

>  <Cat. No.>
HY-19760

>  <Product Name>
I-BET282

>  <ROW>
K

>  <COLUMN>
11

>  <CAS No.>
1422554-34-4

>  <MWt>
450.53

>  <Target>
Epigenetic Reader Domain

>  <Saltdate>
Free Base

>  <Smiles>
COC1=C(C2=C(C)ON=C2C)C=C(N=CC3=C4N(C(C5CCOCC5)=N3)[C@@H](COC)C)C4=C1

>  <Solvent>
DMSO Solution

>  <Batch No.>
20290

>  <Quantity>
10mM  * 50uL

>  <Pathway>
Epigenetics

>  <Synonyms>


>  <Formula>
C25H30N4O4

>  <Research_Area>
Inflammation/Immunology

>  <Clinical_Information>
No Development Reported

>  <SUPPLIER>
MedChemExpress

$$$$
Untitled Document
  ChemDraw12221517252D

 26 27  0  0  0  0  0  0  0  0999 V2000
   -4.7414    0.1227    0.0000 C   0  0  0  0  0  0  0  0  0  0  0  0
   -5.4557   -0.2898    0.0000 C   0  0  0  0  0  0  0  0  0  0  0  0
   -5.4557   -1.1148    0.0000 C   0  0  0  0  0  0  0  0  0  0  0  0
   -4.7414    0.9477    0.0000 O   0  0  0  0  0  0  0  0  0  0  0  0
   -4.0269   -0.2898    0.0000 S   0  0  0  0  0  0  0  0  0  0  0  0
   -6.1702    0.1227    0.0000 C   0  0  0  0  0  0  0  0  0  0  0  0
   -3.3124    0.1227    0.0000 C   0  0  0  0  0  0  0  0  0  0  0  0
   -2.5979   -0.2898    0.0000 C   0  0  0  0  0  0  0  0  0  0  0  0
   -1.8835    0.1227    0.0000 C   0  0  0  0  0  0  0  0  0  0  0  0
   -1.1691   -0.2898    0.0000 C   0  0  0  0  0  0  0  0  0  0  0  0
   -0.4546    0.1227    0.0000 C   0  0  0  0  0  0  0  0  0  0  0  0
    0.2598   -0.2898    0.0000 C   0  0  0  0  0  0  0  0  0  0  0  0
    0.9743    0.1227    0.0000 C   0  0  0  0  0  0  0  0  0  0  0  0
    1.6887   -0.2898    0.0000 N   0  0  0  0  0  0  0  0  0  0  0  0
    2.4894    0.9432    0.0000 S   0  0  0  0  0  0  0  0  0  0  0  0
    2.4032    0.1227    0.0000 C   0  0  0  0  0  0  0  0  0  0  0  0
    3.1568   -0.2128    0.0000 N   0  0  0  0  0  0  0  0  0  0  0  0
    3.7089    0.4003    0.0000 C   0  0  0  0  0  0  0  0  0  0  0  0
    3.2964    1.1148    0.0000 C   0  0  0  0  0  0  0  0  0  0  0  0
    4.5293    0.3140    0.0000 C   0  0  0  0  0  0  0  0  0  0  0  0
    5.0143    0.9815    0.0000 C   0  0  0  0  0  0  0  0  0  0  0  0
    5.8346    0.8952    0.0000 C   0  0  0  0  0  0  0  0  0  0  0  0
    6.1702    0.1416    0.0000 C   0  0  0  0  0  0  0  0  0  0  0  0
    5.6853   -0.5259    0.0000 C   0  0  0  0  0  0  0  0  0  0  0  0
    4.8649   -0.4396    0.0000 C   0  0  0  0  0  0  0  0  0  0  0  0
    0.9743    0.9477    0.0000 O   0  0  0  0  0  0  0  0  0  0  0  0
  1  2  1  0      
  2  3  1  0      
  1  4  2  0      
  1  5  1  0      
  2  6  1  0      
  7  8  1  0      
  8  9  1  0      
  9 10  1  0      
 10 11  1  0      
 11 12  1  0      
 12 13  1  0      
 15 16  1  0      
 16 17  2  0      
 17 18  1  0      
 18 19  2  0      
 15 19  1  0      
 20 21  1  0      
 21 22  2  0      
 22 23  1  0      
 23 24  2  0      
 24 25  1  0      
 20 25  2  0      
 18 20  1  0      
 14 16  1  0      
 13 14  1  0      
 13 26  2  0      
  5  7  1  0      
M  END

>  <RackCode>
HYCPK72336

>  <Cat. No.>
HY-12954

>  <Product Name>
PTACH

>  <ROW>
L

>  <COLUMN>
11

>  <CAS No.>
848354-66-5

>  <MWt>
390.56

>  <Target>
HDAC; HIV

>  <Saltdate>


>  <Smiles>
CC(C)C(SCCCCCCC(NC1=NC(C2=CC=CC=C2)=CS1)=O)=O

>  <Solvent>
DMSO Solution

>  <Batch No.>
179650

>  <Quantity>
10mM  * 50uL

>  <Pathway>
Anti-infection; Cell Cycle/DNA Damage; Epigenetics

>  <Synonyms>
NCH-51

>  <Formula>
C20H26N2O2S2

>  <Research_Area>
Cancer; Infection

>  <Clinical_Information>
No Development Reported

>  <SUPPLIER>
MedChemExpress

$$$$
Untitled Document
  ChemDraw03081715282D

 36 40  0  0  0  0  0  0  0  0999 V2000
   -2.7214    2.1971    0.0000 C   0  0  0  0  0  0  0  0  0  0  0  0
   -2.7214    1.3721    0.0000 C   0  0  0  0  0  0  0  0  0  0  0  0
   -2.0109    0.9596    0.0000 C   0  0  0  0  0  0  0  0  0  0  0  0
   -1.2948    1.3721    0.0000 C   0  0  0  0  0  0  0  0  0  0  0  0
   -1.2948    2.1971    0.0000 C   0  0  0  0  0  0  0  0  0  0  0  0
   -2.0109    2.6096    0.0000 C   0  0  0  0  0  0  0  0  0  0  0  0
   -3.4375    2.6096    0.0000 O   0  0  0  0  0  0  0  0  0  0  0  0
   -3.4375    3.4346    0.0000 C   0  0  0  0  0  0  0  0  0  0  0  0
   -3.4375    0.9596    0.0000 O   0  0  0  0  0  0  0  0  0  0  0  0
   -3.4375    0.1346    0.0000 C   0  0  0  0  0  0  0  0  0  0  0  0
   -0.5786    0.9596    0.0000 C   0  0  0  0  0  0  0  0  0  0  0  0
    0.1317    1.3721    0.0000 N   0  0  0  0  0  0  0  0  0  0  0  0
    0.1317    2.1971    0.0000 C   0  0  0  0  0  0  0  0  0  0  0  0
   -0.5786    2.6096    0.0000 N   0  0  0  0  0  0  0  0  0  0  0  0
   -0.5786    0.1346    0.0000 N   0  0  0  0  0  0  0  0  0  0  0  0
    0.8480    2.6096    0.0000 N   0  0  0  0  0  0  0  0  0  0  0  0
    1.5297    2.1455    0.0000 C   0  0  0  0  0  0  0  0  0  0  0  0
    2.3145    2.3862    0.0000 C   0  0  0  0  0  0  0  0  0  0  0  0
    2.6183    3.1540    0.0000 N   0  0  0  0  0  0  0  0  0  0  0  0
    2.2058    3.8701    0.0000 C   0  0  0  0  0  0  0  0  0  0  0  0
    1.3922    3.9904    0.0000 C   0  0  0  0  0  0  0  0  0  0  0  0
    0.7848    3.4290    0.0000 C   0  0  0  0  0  0  0  0  0  0  0  0
    3.4375    3.2169    0.0000 C   0  0  0  0  0  0  0  0  0  0  0  0
    0.1317   -0.2779    0.0000 C   0  0  0  0  0  0  0  0  0  0  0  0
    0.1317   -1.1029    0.0000 C   0  0  0  0  0  0  0  0  0  0  0  0
    0.8480   -1.5154    0.0000 C   0  0  0  0  0  0  0  0  0  0  0  0
    1.5641   -1.1029    0.0000 N   0  0  0  0  0  0  0  0  0  0  0  0
    1.5641   -0.2779    0.0000 C   0  0  0  0  0  0  0  0  0  0  0  0
    0.8480    0.1346    0.0000 C   0  0  0  0  0  0  0  0  0  0  0  0
    2.2745   -1.5154    0.0000 C   0  0  0  0  0  0  0  0  0  0  0  0
    2.2745   -2.3404    0.0000 C   0  0  0  0  0  0  0  0  0  0  0  0
    1.5583   -2.7529    0.0000 C   0  0  0  0  0  0  0  0  0  0  0  0
    1.5583   -3.5779    0.0000 C   0  0  0  0  0  0  0  0  0  0  0  0
    2.2745   -3.9904    0.0000 C   0  0  0  0  0  0  0  0  0  0  0  0
    2.9906   -3.5779    0.0000 C   0  0  0  0  0  0  0  0  0  0  0  0
    2.9906   -2.7529    0.0000 C   0  0  0  0  0  0  0  0  0  0  0  0
  1  2  2  0      
  2  3  1  0      
  3  4  2  0      
  4  5  1  0      
  5  6  2  0      
  6  1  1  0      
  1  7  1  0      
  7  8  1  0      
  2  9  1  0      
  9 10  1  0      
  4 11  1  0      
 11 12  2  0      
 12 13  1  0      
 13 14  2  0      
 14  5  1  0      
 11 15  1  0      
 13 16  1  0      
 16 17  1  0      
 17 18  1  0      
 18 19  1  0      
 19 20  1  0      
 20 21  1  0      
 21 22  1  0      
 22 16  1  0      
 19 23  1  0      
 15 24  1  0      
 24 25  1  0      
 25 26  1  0      
 26 27  1  0      
 27 28  1  0      
 28 29  1  0      
 29 24  1  0      
 27 30  1  0      
 30 31  1  0      
 31 32  2  0      
 32 33  1  0      
 33 34  2  0      
 34 35  1  0      
 35 36  2  0      
 36 31  1  0      
M  END

>  <RackCode>
HYCPK72336

>  <Cat. No.>
HY-10587

>  <Product Name>
BIX-01294

>  <ROW>
M

>  <COLUMN>
11

>  <CAS No.>
935693-62-2

>  <MWt>
490.64

>  <Target>
Autophagy; Histone Methyltransferase

>  <Saltdate>
Free Base

>  <Smiles>
COC1=C(OC)C=C(C(NC2CCN(CC3=CC=CC=C3)CC2)=NC(N4CCN(C)CCC4)=N5)C5=C1

>  <Solvent>
DMSO Solution

>  <Batch No.>
07113

>  <Quantity>
10mM  * 50uL

>  <Pathway>
Autophagy; Epigenetics

>  <Synonyms>


>  <Formula>
C28H38N6O2

>  <Research_Area>
Cancer

>  <Clinical_Information>
No Development Reported

>  <SUPPLIER>
MedChemExpress

$$$$
Untitled Document
  ChemDraw04082117232D

 24 27  0  0  0  0  0  0  0  0999 V2000
   -3.6032   -0.8250    0.0000 O   0  0  0  0  0  0  0  0  0  0  0  0
   -2.8887   -0.4125    0.0000 C   0  0  0  0  0  0  0  0  0  0  0  0
   -2.1742   -0.8250    0.0000 C   0  0  0  0  0  0  0  0  0  0  0  0
   -1.4598   -0.4125    0.0000 C   0  0  0  0  0  0  0  0  0  0  0  0
   -0.7453   -0.8250    0.0000 C   0  0  0  0  0  0  0  0  0  0  0  0
   -0.0308   -0.4125    0.0000 C   0  0  0  0  0  0  0  0  0  0  0  0
   -0.0308    0.4125    0.0000 C   0  0  0  0  0  0  0  0  0  0  0  0
   -0.7453    0.8250    0.0000 C   0  0  0  0  0  0  0  0  0  0  0  0
   -1.4598    0.4125    0.0000 C   0  0  0  0  0  0  0  0  0  0  0  0
   -2.1742    0.8250    0.0000 O   0  0  0  0  0  0  0  0  0  0  0  0
   -2.8887    0.4125    0.0000 C   0  0  0  0  0  0  0  0  0  0  0  0
   -3.7137    0.4125    0.0000 C   0  0  0  0  0  0  0  0  0  0  0  0
   -3.3012    1.1270    0.0000 C   0  0  0  0  0  0  0  0  0  0  0  0
    0.7538    0.6674    0.0000 O   0  0  0  0  0  0  0  0  0  0  0  0
    1.2387    0.0000    0.0000 C   0  0  0  0  0  0  0  0  0  0  0  0
    0.7538   -0.6674    0.0000 C   0  0  0  0  0  0  0  0  0  0  0  0
    2.0637    0.0000    0.0000 C   0  0  0  0  0  0  0  0  0  0  0  0
    2.4762    0.7145    0.0000 C   0  0  0  0  0  0  0  0  0  0  0  0
    3.3012    0.7145    0.0000 C   0  0  0  0  0  0  0  0  0  0  0  0
    3.7137    1.4289    0.0000 O   0  0  0  0  0  0  0  0  0  0  0  0
    3.7137    0.0000    0.0000 C   0  0  0  0  0  0  0  0  0  0  0  0
    3.3012   -0.7145    0.0000 C   0  0  0  0  0  0  0  0  0  0  0  0
    3.7137   -1.4289    0.0000 O   0  0  0  0  0  0  0  0  0  0  0  0
    2.4762   -0.7145    0.0000 C   0  0  0  0  0  0  0  0  0  0  0  0
  2  1  1  1      
  2  3  1  0      
  3  4  1  0      
  4  5  1  0      
  5  6  2  0      
  6  7  1  0      
  7  8  2  0      
  8  9  1  0      
  4  9  2  0      
  9 10  1  0      
 10 11  1  0      
  2 11  1  0      
 11 12  1  0      
 11 13  1  0      
  7 14  1  0      
 14 15  1  0      
 15 16  2  0      
  6 16  1  0      
 15 17  1  0      
 17 18  2  0      
 18 19  1  0      
 19 20  1  0      
 19 21  2  0      
 21 22  1  0      
 22 23  1  0      
 22 24  2  0      
 17 24  1  0      
M  END

>  <RackCode>
HYCPK72336

>  <Cat. No.>
HY-N3243

>  <Product Name>
Moracin P

>  <ROW>
N

>  <COLUMN>
11

>  <CAS No.>
102841-46-3

>  <MWt>
326.34

>  <Target>
HIF/HIF Prolyl-Hydroxylase; Reactive Oxygen Species

>  <Saltdate>


>  <Smiles>
O[C@@H]1CC2=C(OC1(C)C)C=C(OC(C3=CC(O)=CC(O)=C3)=C4)C4=C2

>  <Solvent>
DMSO Solution

>  <Batch No.>
248966

>  <Quantity>
10mM  * 50uL

>  <Pathway>
Immunology/Inflammation; Metabolic Enzyme/Protease; NF-¦ÊB

>  <Synonyms>


>  <Formula>
C19H18O5

>  <Research_Area>
Cancer; Inflammation/Immunology; Neurological Disease

>  <Clinical_Information>
No Development Reported

>  <SUPPLIER>
MedChemExpress

$$$$
Untitled Document
  ChemDraw01171716002D

 39 44  0  0  0  0  0  0  0  0999 V2000
   -1.0076    1.4720    0.0000 C   0  0  0  0  0  0  0  0  0  0  0  0
   -1.7242    1.8808    0.0000 C   0  0  0  0  0  0  0  0  0  0  0  0
   -2.4365    1.4645    0.0000 C   0  0  0  0  0  0  0  0  0  0  0  0
   -2.4322    0.6396    0.0000 C   0  0  0  0  0  0  0  0  0  0  0  0
   -1.7156    0.2308    0.0000 C   0  0  0  0  0  0  0  0  0  0  0  0
   -1.0033    0.6470    0.0000 C   0  0  0  0  0  0  0  0  0  0  0  0
   -1.7285    2.7058    0.0000 N   0  0  0  0  0  0  0  0  0  0  0  0
   -2.4451    3.1145    0.0000 C   0  0  0  0  0  0  0  0  0  0  0  0
   -3.1574    2.6983    0.0000 C   0  0  0  0  0  0  0  0  0  0  0  0
   -3.8740    3.1071    0.0000 C   0  0  0  0  0  0  0  0  0  0  0  0
   -3.8783    3.9321    0.0000 C   0  0  0  0  0  0  0  0  0  0  0  0
   -3.1660    4.3483    0.0000 C   0  0  0  0  0  0  0  0  0  0  0  0
   -2.4494    3.9395    0.0000 C   0  0  0  0  0  0  0  0  0  0  0  0
   -0.2953    1.8882    0.0000 C   0  0  0  0  0  0  0  0  0  0  0  0
   -0.2996    2.7132    0.0000 O   0  0  0  0  0  0  0  0  0  0  0  0
    0.4213    1.4794    0.0000 N   0  0  0  0  0  0  0  0  0  0  0  0
    1.1337    1.8957    0.0000 C   0  0  0  0  0  0  0  0  0  0  0  0
    1.8503    1.4869    0.0000 C   0  0  0  0  0  0  0  0  0  0  0  0
    1.8546    0.6619    0.0000 C   0  0  0  0  0  0  0  0  0  0  0  0
    1.1423    0.2457    0.0000 C   0  0  0  0  0  0  0  0  0  0  0  0
    0.4256    0.6544    0.0000 C   0  0  0  0  0  0  0  0  0  0  0  0
    2.5712    0.2531    0.0000 N   0  0  0  0  0  0  0  0  0  0  0  0
    3.3231    0.5926    0.0000 C   0  0  0  0  0  0  0  0  0  0  0  0
    3.8783   -0.0176    0.0000 C   0  0  0  0  0  0  0  0  0  0  0  0
    3.4695   -0.7342    0.0000 C   0  0  0  0  0  0  0  0  0  0  0  0
    2.6617   -0.5669    0.0000 C   0  0  0  0  0  0  0  0  0  0  0  0
   -3.1445    0.2233    0.0000 C   0  0  0  0  0  0  0  0  0  0  0  0
   -3.8611    0.6321    0.0000 O   0  0  0  0  0  0  0  0  0  0  0  0
   -3.1402   -0.6016    0.0000 N   0  0  0  0  0  0  0  0  0  0  0  0
   -3.8525   -1.0179    0.0000 C   0  0  0  0  0  0  0  0  0  0  0  0
   -3.8482   -1.8429    0.0000 C   0  0  0  0  0  0  0  0  0  0  0  0
   -3.1316   -2.2516    0.0000 C   0  0  0  0  0  0  0  0  0  0  0  0
   -2.4193   -1.8354    0.0000 C   0  0  0  0  0  0  0  0  0  0  0  0
   -2.4236   -1.0104    0.0000 C   0  0  0  0  0  0  0  0  0  0  0  0
   -3.1273   -3.0766    0.0000 N   0  0  0  0  0  0  0  0  0  0  0  0
   -3.7922   -3.5650    0.0000 C   0  0  0  0  0  0  0  0  0  0  0  0
   -3.5332   -4.3483    0.0000 C   0  0  0  0  0  0  0  0  0  0  0  0
   -2.7082   -4.3440    0.0000 C   0  0  0  0  0  0  0  0  0  0  0  0
   -2.4574   -3.5581    0.0000 C   0  0  0  0  0  0  0  0  0  0  0  0
  1  2  1  0      
  2  3  2  0      
  3  4  1  0      
  4  5  2  0      
  5  6  1  0      
  1  6  2  0      
  8  9  1  0      
  9 10  2  0      
 10 11  1  0      
 11 12  2  0      
 12 13  1  0      
  8 13  2  0      
  7  8  1  0      
  2  7  1  0      
 14 15  2  0      
 16 17  1  0      
 17 18  1  0      
 18 19  1  0      
 19 20  1  0      
 20 21  1  0      
 16 21  1  0      
 22 23  1  0      
 23 24  1  0      
 24 25  1  0      
 25 26  1  0      
 22 26  1  0      
 19 22  1  0      
 14 16  1  0      
  1 14  1  0      
 27 28  2  0      
 29 30  1  0      
 30 31  1  0      
 31 32  1  0      
 32 33  1  0      
 33 34  1  0      
 29 34  1  0      
 35 36  1  0      
 36 37  1  0      
 37 38  1  0      
 38 39  1  0      
 35 39  1  0      
 32 35  1  0      
 27 29  1  0      
  4 27  1  0      
M  END

>  <RackCode>
HYCPK72336

>  <Cat. No.>
HY-15649

>  <Product Name>
UNC1215

>  <ROW>
O

>  <COLUMN>
11

>  <CAS No.>
1415800-43-9

>  <MWt>
529.72

>  <Target>
Apoptosis; Histone Methyltransferase

>  <Saltdate>
Free Base

>  <Smiles>
O=C(C1=CC=C(C(N2CCC(N3CCCC3)CC2)=O)C=C1NC4=CC=CC=C4)N5CCC(N6CCCC6)CC5

>  <Solvent>
DMSO Solution

>  <Batch No.>
09810

>  <Quantity>
10mM  * 50uL

>  <Pathway>
Apoptosis; Epigenetics

>  <Synonyms>


>  <Formula>
C32H43N5O2

>  <Research_Area>
Cancer

>  <Clinical_Information>
No Development Reported

>  <SUPPLIER>
MedChemExpress

$$$$
Untitled Document
  ChemDraw01201614582D

 36 41  0  0  0  0  0  0  0  0999 V2000
   -1.1716   -1.6500    0.0000 N   0  0  0  0  0  0  0  0  0  0  0  0
   -0.4554   -2.0625    0.0000 C   0  0  0  0  0  0  0  0  0  0  0  0
   -0.4554   -2.8875    0.0000 C   0  0  0  0  0  0  0  0  0  0  0  0
   -1.1716   -3.3000    0.0000 N   0  0  0  0  0  0  0  0  0  0  0  0
   -1.8820   -2.8875    0.0000 C   0  0  0  0  0  0  0  0  0  0  0  0
   -2.5982   -3.3000    0.0000 C   0  0  0  0  0  0  0  0  0  0  0  0
   -3.3143   -2.8875    0.0000 C   0  0  0  0  0  0  0  0  0  0  0  0
   -3.3143   -2.0625    0.0000 C   0  0  0  0  0  0  0  0  0  0  0  0
   -2.5982   -1.6500    0.0000 C   0  0  0  0  0  0  0  0  0  0  0  0
   -1.8820   -2.0625    0.0000 C   0  0  0  0  0  0  0  0  0  0  0  0
    1.5669   -1.3694    0.0000 N   0  0  0  0  0  0  0  0  0  0  0  0
    1.1544   -0.6589    0.0000 N   0  0  0  0  0  0  0  0  0  0  0  0
    0.3466   -0.8308    0.0000 C   0  0  0  0  0  0  0  0  0  0  0  0
    0.2607   -1.6500    0.0000 C   0  0  0  0  0  0  0  0  0  0  0  0
    1.0112   -1.9823    0.0000 C   0  0  0  0  0  0  0  0  0  0  0  0
    4.0248   -1.6328    0.0000 N   0  0  0  0  0  0  0  0  0  0  0  0
    3.5435   -2.2975    0.0000 C   0  0  0  0  0  0  0  0  0  0  0  0
    2.7243   -2.2115    0.0000 C   0  0  0  0  0  0  0  0  0  0  0  0
    2.3862   -1.4553    0.0000 C   0  0  0  0  0  0  0  0  0  0  0  0
    2.8732   -0.7906    0.0000 C   0  0  0  0  0  0  0  0  0  0  0  0
    3.6924   -0.8766    0.0000 C   0  0  0  0  0  0  0  0  0  0  0  0
   -2.5982   -0.8250    0.0000 C   0  0  0  0  0  0  0  0  0  0  0  0
   -3.3143   -0.4125    0.0000 C   0  0  0  0  0  0  0  0  0  0  0  0
   -3.3143    0.4125    0.0000 C   0  0  0  0  0  0  0  0  0  0  0  0
   -2.5982    0.8250    0.0000 C   0  0  0  0  0  0  0  0  0  0  0  0
   -1.8820    0.4125    0.0000 C   0  0  0  0  0  0  0  0  0  0  0  0
   -1.8820   -0.4125    0.0000 C   0  0  0  0  0  0  0  0  0  0  0  0
   -2.5982    1.6500    0.0000 C   0  0  0  0  0  0  0  0  0  0  0  0
   -1.8820    2.0625    0.0000 N   0  0  0  0  0  0  0  0  0  0  0  0
   -1.8820    2.8875    0.0000 C   0  0  0  0  0  0  0  0  0  0  0  0
   -1.1716    3.3000    0.0000 C   0  0  0  0  0  0  0  0  0  0  0  0
   -0.4554    2.8875    0.0000 O   0  0  0  0  0  0  0  0  0  0  0  0
   -0.4554    2.0625    0.0000 C   0  0  0  0  0  0  0  0  0  0  0  0
   -1.1716    1.6500    0.0000 C   0  0  0  0  0  0  0  0  0  0  0  0
   -1.1716    0.8250    0.0000 F   0  0  0  0  0  0  0  0  0  0  0  0
   -4.0248    0.8250    0.0000 F   0  0  0  0  0  0  0  0  0  0  0  0
  1  2  2  0      
  2  3  1  0      
  3  4  2  0      
  4  5  1  0      
  5  6  2  0      
  6  7  1  0      
  7  8  2  0      
  8  9  1  0      
  9 10  2  0      
  1 10  1  0      
  5 10  1  0      
 11 12  1  0      
 12 13  2  0      
 13 14  1  0      
 14 15  2  0      
 11 15  1  0      
 16 17  1  0      
 17 18  1  0      
 18 19  1  0      
 19 20  1  0      
 20 21  1  0      
 16 21  1  0      
 11 19  1  0      
  2 14  1  0      
 22 23  1  0      
 23 24  2  0      
 24 25  1  0      
 25 26  2  0      
 26 27  1  0      
 22 27  2  0      
 29 30  1  0      
 30 31  1  0      
 31 32  1  0      
 32 33  1  0      
 33 34  1  0      
 29 34  1  0      
 28 29  1  0      
 25 28  1  0      
 26 35  1  0      
 24 36  1  0      
  9 22  1  0      
M  END

>  <RackCode>
HYCPK72336

>  <Cat. No.>
HY-14722

>  <Product Name>
NVP-BSK805

>  <ROW>
P

>  <COLUMN>
11

>  <CAS No.>
1092499-93-8

>  <MWt>
490.55

>  <Target>
JAK

>  <Saltdate>
Free Base

>  <Smiles>
FC1=C(CN2CCOCC2)C(F)=CC(C3=C4N=C(C5=CN(C6CCNCC6)N=C5)C=NC4=CC=C3)=C1

>  <Solvent>
DMSO Solution

>  <Batch No.>
217431

>  <Quantity>
10mM  * 50uL

>  <Pathway>
Epigenetics; JAK/STAT Signaling; Protein Tyrosine Kinase/RTK; Stem Cell/Wnt

>  <Synonyms>


>  <Formula>
C27H28F2N6O

>  <Research_Area>
Cancer

>  <Clinical_Information>
No Development Reported

>  <SUPPLIER>
MedChemExpress

$$$$
Untitled Document
  ChemDraw03281909102D

 25 27  0  0  0  0  0  0  0  0999 V2000
   -3.0545    0.7116    0.0000 C   0  0  0  0  0  0  0  0  0  0  0  0
   -3.0545   -0.1134    0.0000 C   0  0  0  0  0  0  0  0  0  0  0  0
   -2.3400   -0.5259    0.0000 C   0  0  0  0  0  0  0  0  0  0  0  0
   -1.6256   -0.1134    0.0000 C   0  0  0  0  0  0  0  0  0  0  0  0
   -1.6256    0.7116    0.0000 C   0  0  0  0  0  0  0  0  0  0  0  0
   -2.3400    1.1241    0.0000 C   0  0  0  0  0  0  0  0  0  0  0  0
   -0.8409   -0.3684    0.0000 C   0  0  0  0  0  0  0  0  0  0  0  0
   -0.3560    0.2991    0.0000 N   0  0  0  0  0  0  0  0  0  0  0  0
   -0.8409    0.9665    0.0000 C   0  0  0  0  0  0  0  0  0  0  0  0
   -2.3400   -1.3509    0.0000 C   0  0  0  0  0  0  0  0  0  0  0  0
   -3.0545   -1.7634    0.0000 N   0  0  0  0  0  0  0  0  0  0  0  0
   -1.6256   -1.7634    0.0000 O   0  0  0  0  0  0  0  0  0  0  0  0
   -1.0545    1.7634    0.0000 C   0  0  0  0  0  0  0  0  0  0  0  0
   -0.2576    1.5499    0.0000 C   0  0  0  0  0  0  0  0  0  0  0  0
    0.4690    0.2991    0.0000 C   0  0  0  0  0  0  0  0  0  0  0  0
    0.8815   -0.4154    0.0000 C   0  0  0  0  0  0  0  0  0  0  0  0
    1.7065   -0.4154    0.0000 N   0  0  0  0  0  0  0  0  0  0  0  0
    2.1190    0.2991    0.0000 C   0  0  0  0  0  0  0  0  0  0  0  0
    1.7065    1.0136    0.0000 C   0  0  0  0  0  0  0  0  0  0  0  0
    0.8815    1.0136    0.0000 N   0  0  0  0  0  0  0  0  0  0  0  0
    2.9440    0.2991    0.0000 C   0  0  0  0  0  0  0  0  0  0  0  0
   -3.7690   -1.3509    0.0000 O   0  0  0  0  0  0  0  0  0  0  0  0
    3.3565    1.0136    0.0000 F   0  0  0  0  0  0  0  0  0  0  0  0
    3.3565   -0.4154    0.0000 F   0  0  0  0  0  0  0  0  0  0  0  0
    3.7690    0.2991    0.0000 F   0  0  0  0  0  0  0  0  0  0  0  0
  1  2  2  0      
  2  3  1  0      
  3  4  2  0      
  4  5  1  0      
  5  6  2  0      
  6  1  1  0      
  4  7  1  0      
  7  8  1  0      
  8  9  1  0      
  9  5  1  0      
  3 10  1  0      
 10 11  1  0      
 10 12  2  0      
  9 13  1  0      
  9 14  1  0      
  8 15  1  0      
 15 16  2  0      
 16 17  1  0      
 17 18  2  0      
 18 19  1  0      
 19 20  2  0      
 20 15  1  0      
 18 21  1  0      
 11 22  1  0      
 21 23  1  0      
 21 24  1  0      
 21 25  1  0      
M  END

>  <RackCode>
HYCPK72336

>  <Cat. No.>
HY-112285

>  <Product Name>
FT895

>  <ROW>
A

>  <COLUMN>
12

>  <CAS No.>
2225728-57-2

>  <MWt>
352.31

>  <Target>
HDAC

>  <Saltdate>
Free Base

>  <Smiles>
O=C(NO)C1=C(CN(C2=CN=C(C(F)(F)F)C=N2)C3(C)C)C3=CC=C1

>  <Solvent>
DMSO Solution

>  <Batch No.>
80337

>  <Quantity>
10mM  * 50uL

>  <Pathway>
Cell Cycle/DNA Damage; Epigenetics

>  <Synonyms>


>  <Formula>
C16H15F3N4O2

>  <Research_Area>
Inflammation/Immunology

>  <Clinical_Information>
No Development Reported

>  <SUPPLIER>
MedChemExpress

$$$$
Untitled Document
  ChemDraw05101917262D

 18 19  0  0  0  0  0  0  0  0999 V2000
    3.9210    0.2887    0.0000 O   0  0  0  0  0  0  0  0  0  0  0  0
    3.1005    0.2025    0.0000 C   0  0  0  0  0  0  0  0  0  0  0  0
    2.6880   -0.5120    0.0000 N   0  0  0  0  0  0  0  0  0  0  0  0
    1.8810   -0.3405    0.0000 C   0  0  0  0  0  0  0  0  0  0  0  0
    1.2679   -0.8925    0.0000 O   0  0  0  0  0  0  0  0  0  0  0  0
    2.5485    0.8156    0.0000 S   0  0  0  0  0  0  0  0  0  0  0  0
    1.7948    0.4800    0.0000 C   0  0  0  0  0  0  0  0  0  0  0  0
    1.0803    0.8925    0.0000 C   0  0  0  0  0  0  0  0  0  0  0  0
    0.3658    0.4800    0.0000 C   0  0  0  0  0  0  0  0  0  0  0  0
    0.3658   -0.3450    0.0000 C   0  0  0  0  0  0  0  0  0  0  0  0
   -0.3486   -0.7575    0.0000 C   0  0  0  0  0  0  0  0  0  0  0  0
   -1.0631   -0.3450    0.0000 C   0  0  0  0  0  0  0  0  0  0  0  0
   -1.7776   -0.7575    0.0000 O   0  0  0  0  0  0  0  0  0  0  0  0
   -2.4920   -0.3450    0.0000 C   0  0  0  0  0  0  0  0  0  0  0  0
   -3.2065   -0.7575    0.0000 C   0  0  0  0  0  0  0  0  0  0  0  0
   -3.9210   -0.3450    0.0000 C   0  0  0  0  0  0  0  0  0  0  0  0
   -1.0631    0.4800    0.0000 C   0  0  0  0  0  0  0  0  0  0  0  0
   -0.3486    0.8925    0.0000 C   0  0  0  0  0  0  0  0  0  0  0  0
  1  2  2  0      
  2  3  1  0      
  3  4  1  0      
  4  5  2  0      
  2  6  1  0      
  6  7  1  0      
  4  7  1  0      
  7  8  2  0      
  8  9  1  0      
  9 10  2  0      
 10 11  1  0      
 11 12  2  0      
 12 13  1  0      
 13 14  1  0      
 14 15  1  0      
 15 16  1  0      
 12 17  1  0      
 17 18  2  0      
  9 18  1  0      
M  END

>  <RackCode>
HYCPK72336

>  <Cat. No.>
HY-101947

>  <Product Name>
SMI-16a

>  <ROW>
B

>  <COLUMN>
12

>  <CAS No.>
587852-28-6

>  <MWt>
263.31

>  <Target>
Pim

>  <Saltdate>
Free Base

>  <Smiles>
O=C(NC/1=O)SC1=C\C2=CC=C(OCCC)C=C2

>  <Solvent>
DMSO Solution

>  <Batch No.>
25070

>  <Quantity>
10mM  * 50uL

>  <Pathway>
JAK/STAT Signaling

>  <Synonyms>
PIM1/2 Kinase Inhibitor VI

>  <Formula>
C13H13NO3S

>  <Research_Area>
Cancer

>  <Clinical_Information>
No Development Reported

>  <SUPPLIER>
MedChemExpress

$$$$
Untitled Document
  ChemDraw02211712442D

 34 38  0  0  0  0  0  0  0  0999 V2000
   -2.6947    4.0485    0.0000 C   0  0  0  0  0  0  0  0  0  0  0  0
   -2.6947    3.2235    0.0000 N   0  0  0  0  0  0  0  0  0  0  0  0
   -1.9802    2.8111    0.0000 C   0  0  0  0  0  0  0  0  0  0  0  0
   -1.2657    3.2235    0.0000 C   0  0  0  0  0  0  0  0  0  0  0  0
   -1.2657    4.0485    0.0000 C   0  0  0  0  0  0  0  0  0  0  0  0
   -1.9802    4.4610    0.0000 N   0  0  0  0  0  0  0  0  0  0  0  0
   -1.9802    1.9861    0.0000 N   0  0  0  0  0  0  0  0  0  0  0  0
   -1.2657    1.5736    0.0000 C   0  0  0  0  0  0  0  0  0  0  0  0
   -1.2657    0.7486    0.0000 C   0  0  0  0  0  0  0  0  0  0  0  0
   -0.5513    0.3361    0.0000 C   0  0  0  0  0  0  0  0  0  0  0  0
    0.1632    0.7486    0.0000 N   0  0  0  0  0  0  0  0  0  0  0  0
    0.1632    1.5736    0.0000 C   0  0  0  0  0  0  0  0  0  0  0  0
   -0.5513    1.9861    0.0000 C   0  0  0  0  0  0  0  0  0  0  0  0
    0.8777    0.3361    0.0000 C   0  0  0  0  0  0  0  0  0  0  0  0
    0.8777   -0.4889    0.0000 C   0  0  0  0  0  0  0  0  0  0  0  0
    0.1632   -0.9014    0.0000 C   0  0  0  0  0  0  0  0  0  0  0  0
    0.1632   -1.7264    0.0000 C   0  0  0  0  0  0  0  0  0  0  0  0
    0.8777   -2.1389    0.0000 C   0  0  0  0  0  0  0  0  0  0  0  0
    1.5921   -1.7264    0.0000 C   0  0  0  0  0  0  0  0  0  0  0  0
    1.5921   -0.9014    0.0000 C   0  0  0  0  0  0  0  0  0  0  0  0
    1.0492   -2.9458    0.0000 N   0  0  0  0  0  0  0  0  0  0  0  0
    1.8697   -3.0320    0.0000 C   0  0  0  0  0  0  0  0  0  0  0  0
    2.2052   -2.2785    0.0000 C   0  0  0  0  0  0  0  0  0  0  0  0
   -0.4811    2.9685    0.0000 C   0  0  0  0  0  0  0  0  0  0  0  0
    0.0038    3.6360    0.0000 C   0  0  0  0  0  0  0  0  0  0  0  0
   -0.4811    4.3034    0.0000 S   0  0  0  0  0  0  0  0  0  0  0  0
    0.8288    3.6360    0.0000 C   0  0  0  0  0  0  0  0  0  0  0  0
    1.2413    2.9215    0.0000 C   0  0  0  0  0  0  0  0  0  0  0  0
    2.0663    2.9215    0.0000 F   0  0  0  0  0  0  0  0  0  0  0  0
    0.8288    2.2071    0.0000 F   0  0  0  0  0  0  0  0  0  0  0  0
    1.6538    2.2071    0.0000 F   0  0  0  0  0  0  0  0  0  0  0  0
    2.2822   -3.7465    0.0000 C   0  0  0  0  0  0  0  0  0  0  0  0
    2.6947   -4.4610    0.0000 N   0  0  0  0  0  0  0  0  0  0  0  0
    2.3066   -0.4889    0.0000 C   0  0  0  0  0  0  0  0  0  0  0  0
  1  2  1  0      
  2  3  2  0      
  3  4  1  0      
  4  5  2  0      
  5  6  1  0      
  6  1  2  0      
  3  7  1  0      
  7  8  1  0      
  8  9  1  0      
  9 10  1  0      
 10 11  1  0      
 11 12  1  0      
 12 13  1  0      
 13  8  1  0      
 11 14  1  0      
 14 15  1  0      
 15 16  2  0      
 16 17  1  0      
 17 18  2  0      
 18 19  1  0      
 19 20  2  0      
 20 15  1  0      
 18 21  1  0      
 21 22  1  0      
 22 23  2  0      
 23 19  1  0      
  4 24  1  0      
 24 25  2  0      
 25 26  1  0      
 26  5  1  0      
 25 27  1  0      
 27 28  1  0      
 22 32  1  0      
 28 29  1  0      
 28 30  1  0      
 28 31  1  0      
 32 33  3  0      
 20 34  1  0      
M  END

>  <RackCode>
HYCPK72336

>  <Cat. No.>
HY-19809

>  <Product Name>
MI-463

>  <ROW>
C

>  <COLUMN>
12

>  <CAS No.>
1628317-18-9

>  <MWt>
484.54

>  <Target>
Epigenetic Reader Domain

>  <Saltdate>
Free Base

>  <Smiles>
FC(F)(F)CC(S1)=CC2=C1N=CN=C2NC3CCN(CC4=CC=C(NC(C#N)=C5)C5=C4C)CC3

>  <Solvent>
DMSO Solution

>  <Batch No.>
23516

>  <Quantity>
10mM  * 50uL

>  <Pathway>
Epigenetics

>  <Synonyms>


>  <Formula>
C24H23F3N6S

>  <Research_Area>
Cancer

>  <Clinical_Information>
No Development Reported

>  <SUPPLIER>
MedChemExpress

$$$$
Untitled Document
  ChemDraw05101917272D

 19 21  0  0  0  0  0  0  0  0999 V2000
    0.3572   -1.0312    0.0000 O   0  0  0  0  0  0  0  0  0  0  0  0
    0.3572   -0.2062    0.0000 C   0  0  0  0  0  0  0  0  0  0  0  0
    1.0717    0.2063    0.0000 C   0  0  0  0  0  0  0  0  0  0  0  0
    1.7862   -0.2062    0.0000 C   0  0  0  0  0  0  0  0  0  0  0  0
    2.5006    0.2063    0.0000 C   0  0  0  0  0  0  0  0  0  0  0  0
    3.2151   -0.2062    0.0000 C   0  0  0  0  0  0  0  0  0  0  0  0
    3.2151   -1.0312    0.0000 C   0  0  0  0  0  0  0  0  0  0  0  0
    2.5006   -1.4437    0.0000 C   0  0  0  0  0  0  0  0  0  0  0  0
    1.7862   -1.0312    0.0000 C   0  0  0  0  0  0  0  0  0  0  0  0
    1.0717    1.0312    0.0000 C   0  0  0  0  0  0  0  0  0  0  0  0
    0.3572    1.4437    0.0000 O   0  0  0  0  0  0  0  0  0  0  0  0
   -0.3572    1.0312    0.0000 C   0  0  0  0  0  0  0  0  0  0  0  0
   -1.0717    1.4437    0.0000 C   0  0  0  0  0  0  0  0  0  0  0  0
   -1.7862    1.0312    0.0000 C   0  0  0  0  0  0  0  0  0  0  0  0
   -2.5006    1.4437    0.0000 O   0  0  0  0  0  0  0  0  0  0  0  0
   -3.2151    1.0312    0.0000 C   0  0  0  0  0  0  0  0  0  0  0  0
   -1.7862    0.2062    0.0000 C   0  0  0  0  0  0  0  0  0  0  0  0
   -1.0717   -0.2063    0.0000 C   0  0  0  0  0  0  0  0  0  0  0  0
   -0.3572    0.2062    0.0000 C   0  0  0  0  0  0  0  0  0  0  0  0
  1  2  2  0      
  2  3  1  0      
  3  4  1  0      
  4  5  2  0      
  5  6  1  0      
  6  7  2  0      
  7  8  1  0      
  8  9  2  0      
  4  9  1  0      
  3 10  2  0      
 10 11  1  0      
 11 12  1  0      
 12 13  2  0      
 13 14  1  0      
 14 15  1  0      
 15 16  1  0      
 14 17  2  0      
 17 18  1  0      
 18 19  2  0      
  2 19  1  0      
 12 19  1  0      
M  END

>  <RackCode>
HYCPK72336

>  <Cat. No.>
HY-N6631

>  <Product Name>
7-Methoxyisoflavone

>  <ROW>
D

>  <COLUMN>
12

>  <CAS No.>
1621-56-3

>  <MWt>
252.26

>  <Target>
AMPK

>  <Saltdate>
Free Base

>  <Smiles>
O=C1C(C2=CC=CC=C2)=COC3=CC(OC)=CC=C13

>  <Solvent>
DMSO Solution

>  <Batch No.>
28790

>  <Quantity>
10mM  * 50uL

>  <Pathway>
Epigenetics; PI3K/Akt/mTOR

>  <Synonyms>


>  <Formula>
C16H12O3

>  <Research_Area>
Cancer; Metabolic Disease

>  <Clinical_Information>
No Development Reported

>  <SUPPLIER>
MedChemExpress

$$$$
Untitled Document
  ChemDraw08161615402D

 20 21  0  0  0  0  0  0  0  0999 V2000
   -1.0717    0.8250    0.0000 C   0  0  0  0  0  0  0  0  0  0  0  0
   -0.3572    0.4125    0.0000 C   0  0  0  0  0  0  0  0  0  0  0  0
   -0.3572   -0.4125    0.0000 C   0  0  0  0  0  0  0  0  0  0  0  0
   -1.0717   -0.8250    0.0000 C   0  0  0  0  0  0  0  0  0  0  0  0
   -1.7862   -0.4125    0.0000 C   0  0  0  0  0  0  0  0  0  0  0  0
   -2.5006   -0.8250    0.0000 C   0  0  0  0  0  0  0  0  0  0  0  0
   -3.2151   -0.4125    0.0000 C   0  0  0  0  0  0  0  0  0  0  0  0
   -3.2151    0.4125    0.0000 C   0  0  0  0  0  0  0  0  0  0  0  0
   -2.5006    0.8250    0.0000 C   0  0  0  0  0  0  0  0  0  0  0  0
   -1.7862    0.4125    0.0000 C   0  0  0  0  0  0  0  0  0  0  0  0
   -1.0717    1.6500    0.0000 O   0  0  0  0  0  0  0  0  0  0  0  0
   -1.0717   -1.6500    0.0000 O   0  0  0  0  0  0  0  0  0  0  0  0
    0.3572    0.8250    0.0000 C   0  0  0  0  0  0  0  0  0  0  0  0
    1.0717    0.4125    0.0000 C   0  0  0  0  0  0  0  0  0  0  0  0
    1.7862    0.8250    0.0000 C   0  0  0  0  0  0  0  0  0  0  0  0
    2.5006    0.4125    0.0000 C   0  0  0  0  0  0  0  0  0  0  0  0
    3.2151    0.8250    0.0000 C   0  0  0  0  0  0  0  0  0  0  0  0
    2.5006   -0.4125    0.0000 C   0  0  0  0  0  0  0  0  0  0  0  0
   -2.5006    1.6500    0.0000 O   0  0  0  0  0  0  0  0  0  0  0  0
   -2.5006   -1.6500    0.0000 O   0  0  0  0  0  0  0  0  0  0  0  0
  1  2  1  0      
  2  3  2  0      
  3  4  1  0      
  4  5  1  0      
  5  6  1  0      
  6  7  2  0      
  7  8  1  0      
  8  9  2  0      
  9 10  1  0      
  1 10  1  0      
  5 10  2  0      
  1 11  2  0      
  4 12  2  0      
 13 14  1  0      
 14 15  1  0      
 15 16  2  0      
 16 17  1  0      
 16 18  1  0      
  2 13  1  0      
  9 19  1  0      
  6 20  1  0      
M  END

>  <RackCode>
HYCPK72336

>  <Cat. No.>
HY-N2187

>  <Product Name>
Deoxyshikonin

>  <ROW>
E

>  <COLUMN>
12

>  <CAS No.>
43043-74-9

>  <MWt>
272.30

>  <Target>
Apoptosis; Bacterial; HIF/HIF Prolyl-Hydroxylase; PI3K

>  <Saltdate>
Free Base

>  <Smiles>
O=C1C(CC/C=C(C)/C)=CC(C2=C1C(O)=CC=C2O)=O

>  <Solvent>
DMSO Solution

>  <Batch No.>
117247

>  <Quantity>
10mM  * 50uL

>  <Pathway>
Anti-infection; Apoptosis; Metabolic Enzyme/Protease; PI3K/Akt/mTOR

>  <Synonyms>


>  <Formula>
C16H16O4

>  <Research_Area>
Cancer; Infection; Cardiovascular Disease

>  <Clinical_Information>
No Development Reported

>  <SUPPLIER>
MedChemExpress

$$$$
Untitled Document
  ChemDraw04111914422D

 25 27  0  0  0  0  0  0  0  0999 V2000
   -3.5612    1.5928    0.0000 C   0  0  0  0  0  0  0  0  0  0  0  0
   -3.5612    0.7678    0.0000 C   0  0  0  0  0  0  0  0  0  0  0  0
   -2.8467    0.3553    0.0000 C   0  0  0  0  0  0  0  0  0  0  0  0
   -2.1323    0.7678    0.0000 C   0  0  0  0  0  0  0  0  0  0  0  0
   -2.1323    1.5928    0.0000 C   0  0  0  0  0  0  0  0  0  0  0  0
   -2.8467    2.0053    0.0000 C   0  0  0  0  0  0  0  0  0  0  0  0
   -1.4203    0.3567    0.0000 C   0  0  0  0  0  0  0  0  0  0  0  0
   -0.7083    0.7678    0.0000 N   0  0  0  0  0  0  0  0  0  0  0  0
   -2.1347   -0.0558    0.0000 C   0  0  0  0  0  0  0  0  0  0  0  0
   -2.1347   -0.8808    0.0000 C   0  0  0  0  0  0  0  0  0  0  0  0
   -1.4203   -1.2933    0.0000 C   0  0  0  0  0  0  0  0  0  0  0  0
   -0.7058   -0.8808    0.0000 C   0  0  0  0  0  0  0  0  0  0  0  0
   -0.7058   -0.0558    0.0000 C   0  0  0  0  0  0  0  0  0  0  0  0
    0.0012    0.3581    0.0000 C   0  0  0  0  0  0  0  0  0  0  0  0
   -1.8313   -2.0053    0.0000 F   0  0  0  0  0  0  0  0  0  0  0  0
   -1.0092   -2.0053    0.0000 F   0  0  0  0  0  0  0  0  0  0  0  0
    0.0012   -0.4669    0.0000 N   0  0  0  0  0  0  0  0  0  0  0  0
    0.7157   -0.8794    0.0000 C   0  0  0  0  0  0  0  0  0  0  0  0
    1.4302   -0.4669    0.0000 C   0  0  0  0  0  0  0  0  0  0  0  0
    1.4302    0.3581    0.0000 C   0  0  0  0  0  0  0  0  0  0  0  0
    0.7157    0.7706    0.0000 N   0  0  0  0  0  0  0  0  0  0  0  0
    2.1422   -0.8779    0.0000 C   0  0  0  0  0  0  0  0  0  0  0  0
    2.8517   -0.4683    0.0000 N   0  0  0  0  0  0  0  0  0  0  0  0
    2.1422   -1.6972    0.0000 O   0  0  0  0  0  0  0  0  0  0  0  0
    3.5612   -0.8779    0.0000 O   0  0  0  0  0  0  0  0  0  0  0  0
  1  2  2  0      
  2  3  1  0      
  3  4  2  0      
  4  5  1  0      
  5  6  2  0      
  6  1  1  0      
  4  7  1  0      
  7  8  1  0      
  7  9  1  0      
  9 10  1  0      
 10 11  1  0      
 11 12  1  0      
 12 13  1  0      
 13  7  1  0      
  8 14  1  0      
 11 15  1  0      
 11 16  1  0      
 14 17  2  0      
 17 18  1  0      
 18 19  2  0      
 19 20  1  0      
 20 21  2  0      
 21 14  1  0      
 19 22  1  0      
 22 23  1  0      
 22 24  2  0      
 23 25  1  0      
M  END

>  <RackCode>
HYCPK72336

>  <Cat. No.>
HY-111791

>  <Product Name>
ACY-1083

>  <ROW>
F

>  <COLUMN>
12

>  <CAS No.>
1708113-43-2

>  <MWt>
348.35

>  <Target>
HDAC

>  <Saltdate>
Free Base

>  <Smiles>
FC(CC1)(F)CCC1(NC2=NC=C(C(NO)=O)C=N2)C3=CC=CC=C3

>  <Solvent>
DMSO Solution

>  <Batch No.>
57431

>  <Quantity>
10mM  * 50uL

>  <Pathway>
Cell Cycle/DNA Damage; Epigenetics

>  <Synonyms>


>  <Formula>
C17H18F2N4O2

>  <Research_Area>
Cancer

>  <Clinical_Information>
No Development Reported

>  <SUPPLIER>
MedChemExpress

$$$$
Untitled Document
  ChemDraw12121713542D

 23 25  0  0  0  0  0  0  0  0999 V2000
    0.3572    0.2062    0.0000 C   0  0  0  0  0  0  0  0  0  0  0  0
    0.3572   -0.6187    0.0000 C   0  0  0  0  0  0  0  0  0  0  0  0
   -0.3572   -1.0313    0.0000 C   0  0  0  0  0  0  0  0  0  0  0  0
   -1.0717   -0.6187    0.0000 C   0  0  0  0  0  0  0  0  0  0  0  0
   -1.0717    0.2062    0.0000 C   0  0  0  0  0  0  0  0  0  0  0  0
   -0.3572    0.6188    0.0000 O   0  0  0  0  0  0  0  0  0  0  0  0
   -1.7862    0.6188    0.0000 C   0  0  0  0  0  0  0  0  0  0  0  0
   -2.5006    0.2062    0.0000 C   0  0  0  0  0  0  0  0  0  0  0  0
   -2.5006   -0.6187    0.0000 C   0  0  0  0  0  0  0  0  0  0  0  0
   -1.7862   -1.0313    0.0000 C   0  0  0  0  0  0  0  0  0  0  0  0
   -0.3572   -1.8563    0.0000 O   0  0  0  0  0  0  0  0  0  0  0  0
   -3.2151    0.6188    0.0000 O   0  0  0  0  0  0  0  0  0  0  0  0
   -3.2151   -1.0313    0.0000 O   0  0  0  0  0  0  0  0  0  0  0  0
   -1.7862   -1.8563    0.0000 O   0  0  0  0  0  0  0  0  0  0  0  0
    1.0717   -1.0313    0.0000 O   0  0  0  0  0  0  0  0  0  0  0  0
    1.0717    0.6188    0.0000 C   0  0  0  0  0  0  0  0  0  0  0  0
    1.7862    0.2062    0.0000 C   0  0  0  0  0  0  0  0  0  0  0  0
    2.5006    0.6188    0.0000 C   0  0  0  0  0  0  0  0  0  0  0  0
    2.5006    1.4438    0.0000 C   0  0  0  0  0  0  0  0  0  0  0  0
    1.7862    1.8563    0.0000 C   0  0  0  0  0  0  0  0  0  0  0  0
    1.0717    1.4438    0.0000 C   0  0  0  0  0  0  0  0  0  0  0  0
    3.2151    1.8563    0.0000 O   0  0  0  0  0  0  0  0  0  0  0  0
    3.2151    0.2062    0.0000 O   0  0  0  0  0  0  0  0  0  0  0  0
  1  2  2  0      
  2  3  1  0      
  3  4  1  0      
  4  5  1  0      
  5  6  1  0      
  1  6  1  0      
  7  8  1  0      
  8  9  2  0      
  9 10  1  0      
  4 10  2  0      
  5  7  2  0      
  3 11  2  0      
  8 12  1  0      
  9 13  1  0      
 10 14  1  0      
  2 15  1  0      
 16 17  1  0      
 17 18  2  0      
 18 19  1  0      
 19 20  2  0      
 20 21  1  0      
 16 21  2  0      
 19 22  1  0      
 18 23  1  0      
  1 16  1  0      
M  END

>  <RackCode>
HYCPK72336

>  <Cat. No.>
HY-N4149

>  <Product Name>
Quercetagetin

>  <ROW>
G

>  <COLUMN>
12

>  <CAS No.>
90-18-6

>  <MWt>
318.24

>  <Target>
Pim

>  <Saltdate>
Free Base

>  <Smiles>
O=C1C(O)=C(C2=CC=C(O)C(O)=C2)OC3=CC(O)=C(O)C(O)=C13

>  <Solvent>
DMSO Solution

>  <Batch No.>
58117

>  <Quantity>
10mM  * 50uL

>  <Pathway>
JAK/STAT Signaling

>  <Synonyms>
6-Hydroxyquercetin

>  <Formula>
C15H10O8

>  <Research_Area>
Cancer; Inflammation/Immunology

>  <Clinical_Information>
No Development Reported

>  <SUPPLIER>
MedChemExpress

$$$$
Untitled Document
  ChemDraw02281916472D

 30 34  0  0  0  0  0  0  0  0999 V2000
   -2.0730   -0.7622    0.0000 N   0  0  0  0  0  0  0  0  0  0  0  0
   -1.3586   -1.1747    0.0000 C   0  0  0  0  0  0  0  0  0  0  0  0
   -1.3586   -1.9997    0.0000 N   0  0  0  0  0  0  0  0  0  0  0  0
   -2.0730   -2.4122    0.0000 C   0  0  0  0  0  0  0  0  0  0  0  0
   -2.7875   -1.9997    0.0000 C   0  0  0  0  0  0  0  0  0  0  0  0
   -3.5020   -2.4122    0.0000 C   0  0  0  0  0  0  0  0  0  0  0  0
   -4.2164   -1.9997    0.0000 C   0  0  0  0  0  0  0  0  0  0  0  0
   -4.2164   -1.1747    0.0000 C   0  0  0  0  0  0  0  0  0  0  0  0
   -3.5020   -0.7622    0.0000 C   0  0  0  0  0  0  0  0  0  0  0  0
   -2.7875   -1.1747    0.0000 C   0  0  0  0  0  0  0  0  0  0  0  0
   -2.0730   -3.2372    0.0000 O   0  0  0  0  0  0  0  0  0  0  0  0
    2.0906    0.3404    0.0000 N   0  0  0  0  0  0  0  0  0  0  0  0
    1.5385   -0.2727    0.0000 C   0  0  0  0  0  0  0  0  0  0  0  0
    0.7849    0.0628    0.0000 C   0  0  0  0  0  0  0  0  0  0  0  0
    0.8711    0.8833    0.0000 C   0  0  0  0  0  0  0  0  0  0  0  0
    0.3191    1.4964    0.0000 C   0  0  0  0  0  0  0  0  0  0  0  0
    0.5740    2.2810    0.0000 C   0  0  0  0  0  0  0  0  0  0  0  0
    1.3810    2.4526    0.0000 C   0  0  0  0  0  0  0  0  0  0  0  0
    1.9330    1.8395    0.0000 C   0  0  0  0  0  0  0  0  0  0  0  0
    1.6781    1.0548    0.0000 C   0  0  0  0  0  0  0  0  0  0  0  0
   -0.6441   -0.7622    0.0000 N   0  0  0  0  0  0  0  0  0  0  0  0
    0.0704   -1.1747    0.0000 C   0  0  0  0  0  0  0  0  0  0  0  0
    0.7849   -0.7622    0.0000 C   0  0  0  0  0  0  0  0  0  0  0  0
    0.0704    0.4753    0.0000 C   0  0  0  0  0  0  0  0  0  0  0  0
   -0.6441    0.0628    0.0000 C   0  0  0  0  0  0  0  0  0  0  0  0
    2.9110    0.2541    0.0000 C   0  0  0  0  0  0  0  0  0  0  0  0
    3.3960    0.9216    0.0000 C   0  0  0  0  0  0  0  0  0  0  0  0
    4.2164    0.8353    0.0000 O   0  0  0  0  0  0  0  0  0  0  0  0
    1.6359    3.2372    0.0000 F   0  0  0  0  0  0  0  0  0  0  0  0
   -0.4879    1.3249    0.0000 F   0  0  0  0  0  0  0  0  0  0  0  0
  1  2  2  0      
  2  3  1  0      
  3  4  1  0      
  4  5  1  0      
  5  6  1  0      
  6  7  1  0      
  7  8  1  0      
  8  9  1  0      
  9 10  1  0      
  1 10  1  0      
  5 10  2  0      
  4 11  2  0      
 12 13  1  0      
 13 14  1  0      
 14 15  1  0      
 15 16  1  0      
 16 17  2  0      
 17 18  1  0      
 18 19  2  0      
 19 20  1  0      
 12 20  1  0      
 15 20  2  0      
 21 22  1  0      
 22 23  1  0      
 24 25  1  0      
 21 25  1  0      
 14 23  1  0      
 14 24  1  0      
 26 27  1  0      
 27 28  1  0      
 12 26  1  0      
 18 29  1  0      
 16 30  1  0      
  2 21  1  0      
M  END

>  <RackCode>
HYCPK72336

>  <Cat. No.>
HY-123892

>  <Product Name>
RK-287107

>  <ROW>
H

>  <COLUMN>
12

>  <CAS No.>
2171386-10-8

>  <MWt>
416.46

>  <Target>
PARP

>  <Saltdate>
Free Base

>  <Smiles>
O=C1NC(N2CCC3(CC2)CN(CCO)C4=C3C(F)=CC(F)=C4)=NC5=C1CCCC5

>  <Solvent>
DMSO Solution

>  <Batch No.>
43905

>  <Quantity>
10mM  * 50uL

>  <Pathway>
Cell Cycle/DNA Damage; Epigenetics

>  <Synonyms>


>  <Formula>
C22H26F2N4O2

>  <Research_Area>
Cancer

>  <Clinical_Information>
No Development Reported

>  <SUPPLIER>
MedChemExpress

$$$$
Untitled Document
  ChemDraw04191813072D

 35 38  0  0  0  0  0  0  0  0999 V2000
   -2.6272   -2.0874    0.0000 C   0  0  0  0  0  0  0  0  0  0  0  0
   -2.6272   -2.9124    0.0000 C   0  0  0  0  0  0  0  0  0  0  0  0
   -1.9127   -3.3249    0.0000 C   0  0  0  0  0  0  0  0  0  0  0  0
   -1.1982   -2.9124    0.0000 C   0  0  0  0  0  0  0  0  0  0  0  0
   -1.1982   -2.0874    0.0000 C   0  0  0  0  0  0  0  0  0  0  0  0
   -1.9127   -1.6749    0.0000 C   0  0  0  0  0  0  0  0  0  0  0  0
   -3.3416   -1.6749    0.0000 C   0  0  0  0  0  0  0  0  0  0  0  0
   -4.0561   -2.0874    0.0000 C   0  0  0  0  0  0  0  0  0  0  0  0
   -1.9127   -0.8499    0.0000 C   0  0  0  0  0  0  0  0  0  0  0  0
   -2.6272   -0.4374    0.0000 O   0  0  0  0  0  0  0  0  0  0  0  0
   -1.1982   -0.4374    0.0000 N   0  0  0  0  0  0  0  0  0  0  0  0
   -1.1982    0.3876    0.0000 C   0  0  0  0  0  0  0  0  0  0  0  0
   -0.5308    0.8725    0.0000 C   0  0  0  0  0  0  0  0  0  0  0  0
   -0.7857    1.6571    0.0000 C   0  0  0  0  0  0  0  0  0  0  0  0
   -1.6107    1.6571    0.0000 N   0  0  0  0  0  0  0  0  0  0  0  0
   -1.8657    0.8725    0.0000 N   0  0  0  0  0  0  0  0  0  0  0  0
    0.2762    0.7010    0.0000 C   0  0  0  0  0  0  0  0  0  0  0  0
    0.8282    1.3141    0.0000 C   0  0  0  0  0  0  0  0  0  0  0  0
    0.5733    2.0987    0.0000 C   0  0  0  0  0  0  0  0  0  0  0  0
   -0.2337    2.2702    0.0000 C   0  0  0  0  0  0  0  0  0  0  0  0
   -0.4886    3.0549    0.0000 C   0  0  0  0  0  0  0  0  0  0  0  0
    1.1253    2.7118    0.0000 F   0  0  0  0  0  0  0  0  0  0  0  0
    1.6352    1.1426    0.0000 C   0  0  0  0  0  0  0  0  0  0  0  0
    1.8901    0.3579    0.0000 C   0  0  0  0  0  0  0  0  0  0  0  0
    2.6971    0.1864    0.0000 C   0  0  0  0  0  0  0  0  0  0  0  0
    3.2491    0.7995    0.0000 N   0  0  0  0  0  0  0  0  0  0  0  0
    2.9942    1.5841    0.0000 C   0  0  0  0  0  0  0  0  0  0  0  0
    2.1872    1.7557    0.0000 C   0  0  0  0  0  0  0  0  0  0  0  0
    1.9323    2.5403    0.0000 C   0  0  0  0  0  0  0  0  0  0  0  0
    1.3381   -0.2552    0.0000 C   0  0  0  0  0  0  0  0  0  0  0  0
    3.5462    2.1972    0.0000 C   0  0  0  0  0  0  0  0  0  0  0  0
    4.0561    0.6280    0.0000 C   0  0  0  0  0  0  0  0  0  0  0  0
    2.9520   -0.5982    0.0000 C   0  0  0  0  0  0  0  0  0  0  0  0
    1.6773    3.3249    0.0000 N   0  0  0  0  0  0  0  0  0  0  0  0
    0.7861   -0.8682    0.0000 N   0  0  0  0  0  0  0  0  0  0  0  0
  1  2  2  0      
  2  3  1  0      
  3  4  2  0      
  4  5  1  0      
  5  6  2  0      
  6  1  1  0      
  1  7  1  0      
  7  8  1  0      
  6  9  1  0      
  9 10  2  0      
  9 11  1  0      
 11 12  1  0      
 12 13  1  0      
 13 14  2  0      
 14 15  1  0      
 15 16  1  0      
 16 12  2  0      
 13 17  1  0      
 17 18  2  0      
 18 19  1  0      
 19 20  2  0      
 20 14  1  0      
 20 21  1  0      
 19 22  1  0      
 18 23  1  0      
 23 24  1  0      
 24 25  2  0      
 25 26  1  0      
 26 27  1  0      
 27 28  2  0      
 28 23  1  0      
 28 29  1  0      
 24 30  1  0      
 27 31  1  0      
 26 32  1  0      
 25 33  1  0      
 29 34  3  0      
 30 35  3  0      
M  END

>  <RackCode>
HYCPK72336

>  <Cat. No.>
HY-112083

>  <Product Name>
BAY-3827

>  <ROW>
I

>  <COLUMN>
12

>  <CAS No.>
2377576-35-5

>  <MWt>
468.53

>  <Target>
AMPK

>  <Saltdate>


>  <Smiles>
CCC1=CC=CC=C1C(NC2=NNC3=C2C=C(C4C(C#N)=C(C)N(C)C(C)=C4C#N)C(F)=C3C)=O

>  <Solvent>
DMSO Solution

>  <Batch No.>
244612

>  <Quantity>
10mM  * 50uL

>  <Pathway>
Epigenetics; PI3K/Akt/mTOR

>  <Synonyms>


>  <Formula>
C27H25FN6O

>  <Research_Area>
Cancer

>  <Clinical_Information>
No Development Reported

>  <SUPPLIER>
MedChemExpress

$$$$
Untitled Document
  ChemDraw11161609302D

 23 24  0  0  0  0  0  0  0  0999 V2000
    3.3782    1.2243    0.0000 C   0  0  0  0  0  0  0  0  0  0  0  0
    2.6639    0.8118    0.0000 C   0  0  0  0  0  0  0  0  0  0  0  0
    1.9494    1.2243    0.0000 C   0  0  0  0  0  0  0  0  0  0  0  0
    3.3782    2.0492    0.0000 O   0  0  0  0  0  0  0  0  0  0  0  0
    4.0927    0.8118    0.0000 N   0  0  0  0  0  0  0  0  0  0  0  0
    4.8072    1.2243    0.0000 O   0  0  0  0  0  0  0  0  0  0  0  0
    0.4813    1.1473    0.0000 N   0  0  0  0  0  0  0  0  0  0  0  0
    1.2350    0.8118    0.0000 C   0  0  0  0  0  0  0  0  0  0  0  0
    1.1488   -0.0087    0.0000 C   0  0  0  0  0  0  0  0  0  0  0  0
    0.3418   -0.1802    0.0000 C   0  0  0  0  0  0  0  0  0  0  0  0
   -0.0707    0.5342    0.0000 C   0  0  0  0  0  0  0  0  0  0  0  0
    0.3098    1.9542    0.0000 C   0  0  0  0  0  0  0  0  0  0  0  0
   -0.8912    0.6205    0.0000 C   0  0  0  0  0  0  0  0  0  0  0  0
   -1.3761   -0.0470    0.0000 C   0  0  0  0  0  0  0  0  0  0  0  0
   -2.1965    0.0393    0.0000 C   0  0  0  0  0  0  0  0  0  0  0  0
   -2.5320    0.7930    0.0000 O   0  0  0  0  0  0  0  0  0  0  0  0
   -2.6814   -0.6282    0.0000 C   0  0  0  0  0  0  0  0  0  0  0  0
   -3.5018   -0.5419    0.0000 C   0  0  0  0  0  0  0  0  0  0  0  0
   -3.9867   -1.2094    0.0000 C   0  0  0  0  0  0  0  0  0  0  0  0
   -3.6511   -1.9629    0.0000 C   0  0  0  0  0  0  0  0  0  0  0  0
   -2.8308   -2.0492    0.0000 C   0  0  0  0  0  0  0  0  0  0  0  0
   -2.3458   -1.3818    0.0000 C   0  0  0  0  0  0  0  0  0  0  0  0
   -4.8072   -1.1231    0.0000 F   0  0  0  0  0  0  0  0  0  0  0  0
  1  2  1  0      
  2  3  2  0      
  1  4  2  0      
  1  5  1  0      
  5  6  1  0      
  7  8  1  0      
  8  9  2  0      
  9 10  1  0      
 10 11  2  0      
  7 11  1  0      
  7 12  1  0      
 13 14  2  0      
 14 15  1  0      
 15 16  2  0      
 17 18  1  0      
 18 19  2  0      
 19 20  1  0      
 20 21  2  0      
 21 22  1  0      
 17 22  2  0      
 19 23  1  0      
 15 17  1  0      
 11 13  1  0      
  3  8  1  0      
M  END

>  <RackCode>
HYCPK72336

>  <Cat. No.>
HY-16914

>  <Product Name>
MC1568

>  <ROW>
J

>  <COLUMN>
12

>  <CAS No.>
852475-26-4

>  <MWt>
314.31

>  <Target>
HDAC

>  <Saltdate>
Free Base

>  <Smiles>
O=C(NO)/C=C/C1=CC=C(/C=C/C(C2=CC=CC(F)=C2)=O)N1C

>  <Solvent>
DMSO Solution

>  <Batch No.>
16783

>  <Quantity>
10mM  * 50uL

>  <Pathway>
Cell Cycle/DNA Damage; Epigenetics

>  <Synonyms>


>  <Formula>
C17H15FN2O3

>  <Research_Area>
Cancer

>  <Clinical_Information>
No Development Reported

>  <SUPPLIER>
MedChemExpress

$$$$
Untitled Document
  ChemDraw11251613352D

 30 32  0  0  0  0  0  0  0  0999 V2000
    0.3572    0.0517    0.0000 C   0  0  0  0  0  0  0  0  0  0  0  0
   -0.3572    0.4642    0.0000 C   0  0  0  0  0  0  0  0  0  0  0  0
   -0.3572    1.2892    0.0000 C   0  0  0  0  0  0  0  0  0  0  0  0
    0.3572    1.7017    0.0000 C   0  0  0  0  0  0  0  0  0  0  0  0
    1.0717    1.3322    0.0000 C   0  0  0  0  0  0  0  0  0  0  0  0
    1.0717    0.4642    0.0000 O   0  0  0  0  0  0  0  0  0  0  0  0
    0.3572   -0.7733    0.0000 C   0  0  0  0  0  0  0  0  0  0  0  0
   -0.3572   -1.1858    0.0000 C   0  0  0  0  0  0  0  0  0  0  0  0
   -1.0717   -0.7733    0.0000 C   0  0  0  0  0  0  0  0  0  0  0  0
   -1.7862   -1.1858    0.0000 C   0  0  0  0  0  0  0  0  0  0  0  0
   -2.5006   -0.7733    0.0000 C   0  0  0  0  0  0  0  0  0  0  0  0
   -2.5006    0.0517    0.0000 C   0  0  0  0  0  0  0  0  0  0  0  0
   -1.7862    0.4642    0.0000 C   0  0  0  0  0  0  0  0  0  0  0  0
   -1.0717    0.0517    0.0000 C   0  0  0  0  0  0  0  0  0  0  0  0
   -1.0717    1.7017    0.0000 O   0  0  0  0  0  0  0  0  0  0  0  0
   -1.0717    0.8767    0.0000 C   0  0  0  0  0  0  0  0  0  0  0  0
   -1.3737   -1.9003    0.0000 C   0  0  0  0  0  0  0  0  0  0  0  0
   -2.1987   -1.9003    0.0000 C   0  0  0  0  0  0  0  0  0  0  0  0
    0.3781    0.8765    0.0000 C   0  0  0  0  0  0  0  0  0  0  0  0
    1.4842    2.0036    0.0000 C   0  0  0  0  0  0  0  0  0  0  0  0
   -0.3572   -0.3608    0.0000 O   0  0  0  0  0  0  0  0  0  0  0  0
   -1.7862    1.2892    0.0000 O   0  0  0  0  0  0  0  0  0  0  0  0
   -0.3572   -2.0108    0.0000 O   0  0  0  0  0  0  0  0  0  0  0  0
    1.8967    1.3322    0.0000 C   0  0  0  0  0  0  0  0  0  0  0  0
    2.2967    2.0108    0.0000 C   0  0  0  0  0  0  0  0  0  0  0  0
    1.0717   -1.1858    0.0000 O   0  0  0  0  0  0  0  0  0  0  0  0
    1.7862   -0.7733    0.0000 C   0  0  0  0  0  0  0  0  0  0  0  0
    1.7862    0.0517    0.0000 O   0  0  0  0  0  0  0  0  0  0  0  0
    2.5006   -1.1858    0.0000 C   0  0  0  0  0  0  0  0  0  0  0  0
   -1.0717   -1.5983    0.0000 H   0  0  0  0  0  0  0  0  0  0  0  0
  1  2  1  0      
  2  3  1  0      
  3  4  1  0      
  4  5  1  0      
  5  6  1  0      
  1  6  1  0      
  7  8  1  0      
  8  9  1  0      
  9 10  1  0      
 10 11  1  0      
 11 12  1  0      
 12 13  1  0      
 13 14  1  0      
  9 14  1  0      
  1  7  1  0      
  2 14  1  0      
  3 15  2  0      
 14 16  1  1      
 10 17  1  0      
 10 18  1  0      
  1 19  1  1      
  5 20  1  1      
  2 21  1  6      
 13 22  1  6      
  8 23  1  1      
 24 25  2  0      
  5 24  1  6      
 27 28  2  0      
 27 29  1  0      
 26 27  1  0      
  7 26  1  1      
  9 30  1  6      
M  END

>  <RackCode>
HYCPK72336

>  <Cat. No.>
HY-15371

>  <Product Name>
Forskolin

>  <ROW>
K

>  <COLUMN>
12

>  <CAS No.>
66575-29-9

>  <MWt>
410.50

>  <Target>
Adenylate Cyclase; Autophagy; FXR; Organoid; PKC

>  <Saltdate>
Free Base

>  <Smiles>
O=C1[C@@]2(O)[C@]([C@@H](OC(C)=O)[C@@H](O)[C@@]3([H])C(C)(C)CC[C@H](O)[C@@]32C)(C)O[C@@](C)(C=C)C1

>  <Solvent>
DMSO Solution

>  <Batch No.>
152325

>  <Quantity>
10mM  * 50uL

>  <Pathway>
Autophagy; Epigenetics; GPCR/G Protein; Metabolic Enzyme/Protease; Stem Cell/Wnt; TGF-beta/Smad

>  <Synonyms>
Coleonol; Colforsin; HL 362

>  <Formula>
C22H34O7

>  <Research_Area>
Cancer; Endocrinology; Metabolic Disease; Inflammation/Immunology

>  <Clinical_Information>
No Development Reported

>  <SUPPLIER>
MedChemExpress

$$$$
Untitled Document
  ChemDraw07171908562D

 18 19  0  0  0  0  0  0  0  0999 V2000
   -0.0000    0.4125    0.0000 C   0  0  0  0  0  0  0  0  0  0  0  0
    0.7145    0.0000    0.0000 C   0  0  0  0  0  0  0  0  0  0  0  0
    1.4289    0.4125    0.0000 C   0  0  0  0  0  0  0  0  0  0  0  0
   -0.0000    1.2375    0.0000 O   0  0  0  0  0  0  0  0  0  0  0  0
    2.1434    0.0000    0.0000 C   0  0  0  0  0  0  0  0  0  0  0  0
    2.8579    0.4125    0.0000 C   0  0  0  0  0  0  0  0  0  0  0  0
    3.5724    0.0000    0.0000 C   0  0  0  0  0  0  0  0  0  0  0  0
    3.5724   -0.8250    0.0000 C   0  0  0  0  0  0  0  0  0  0  0  0
    2.8579   -1.2375    0.0000 C   0  0  0  0  0  0  0  0  0  0  0  0
    2.1434   -0.8250    0.0000 C   0  0  0  0  0  0  0  0  0  0  0  0
   -0.7145    0.0000    0.0000 C   0  0  0  0  0  0  0  0  0  0  0  0
   -0.7145   -0.8250    0.0000 C   0  0  0  0  0  0  0  0  0  0  0  0
   -1.4289   -1.2375    0.0000 C   0  0  0  0  0  0  0  0  0  0  0  0
   -2.1434   -0.8250    0.0000 C   0  0  0  0  0  0  0  0  0  0  0  0
   -2.1434    0.0000    0.0000 C   0  0  0  0  0  0  0  0  0  0  0  0
   -1.4289    0.4125    0.0000 C   0  0  0  0  0  0  0  0  0  0  0  0
   -2.8579   -1.2375    0.0000 O   0  0  0  0  0  0  0  0  0  0  0  0
   -3.5724   -0.8250    0.0000 C   0  0  0  0  0  0  0  0  0  0  0  0
  1  2  1  0      
  2  3  2  0      
  1  4  2  0      
  5  6  1  0      
  6  7  2  0      
  7  8  1  0      
  8  9  2  0      
  9 10  1  0      
  5 10  2  0      
  3  5  1  0      
 11 12  1  0      
 12 13  2  0      
 13 14  1  0      
 14 15  2  0      
 15 16  1  0      
 11 16  2  0      
 17 18  1  0      
 14 17  1  0      
  1 11  1  0      
M  END

>  <RackCode>
HYCPK72336

>  <Cat. No.>
HY-128400

>  <Product Name>
4'-Methoxychalcone

>  <ROW>
L

>  <COLUMN>
12

>  <CAS No.>
959-23-9

>  <MWt>
238.28

>  <Target>
PARP

>  <Saltdate>


>  <Smiles>
O=C(C1=CC=C(OC)C=C1)/C=C/C2=CC=CC=C2

>  <Solvent>
DMSO Solution

>  <Batch No.>
122707

>  <Quantity>
10mM  * 50uL

>  <Pathway>
Cell Cycle/DNA Damage; Epigenetics

>  <Synonyms>


>  <Formula>
C16H14O2

>  <Research_Area>
Metabolic Disease; Cancer

>  <Clinical_Information>
No Development Reported

>  <SUPPLIER>
MedChemExpress

$$$$
Untitled Document
  ChemDraw01171913552D

 36 40  0  0  0  0  0  0  0  0999 V2000
   -2.3650    0.0000    0.0000 C   0  0  0  0  0  0  0  0  0  0  0  0
   -1.9525    0.7145    0.0000 C   0  0  0  0  0  0  0  0  0  0  0  0
   -1.1275    0.7145    0.0000 C   0  0  0  0  0  0  0  0  0  0  0  0
   -0.7150    1.4289    0.0000 C   0  0  0  0  0  0  0  0  0  0  0  0
   -1.1275    2.1434    0.0000 C   0  0  0  0  0  0  0  0  0  0  0  0
   -1.9525    2.1434    0.0000 C   0  0  0  0  0  0  0  0  0  0  0  0
   -2.3650    1.4289    0.0000 C   0  0  0  0  0  0  0  0  0  0  0  0
   -3.1900    0.0000    0.0000 O   0  0  0  0  0  0  0  0  0  0  0  0
   -1.9525   -0.7145    0.0000 N   0  0  0  0  0  0  0  0  0  0  0  0
   -2.3650   -1.4289    0.0000 C   0  0  0  0  0  0  0  0  0  0  0  0
   -1.9525   -2.1434    0.0000 C   0  0  0  0  0  0  0  0  0  0  0  0
   -2.3650   -2.8579    0.0000 C   0  0  0  0  0  0  0  0  0  0  0  0
   -3.1900   -2.8579    0.0000 C   0  0  0  0  0  0  0  0  0  0  0  0
   -3.6025   -2.1434    0.0000 C   0  0  0  0  0  0  0  0  0  0  0  0
   -3.1900   -1.4289    0.0000 C   0  0  0  0  0  0  0  0  0  0  0  0
    0.9267   -2.8109    0.0000 S   0  0  0  0  0  0  0  0  0  0  0  0
    0.1420   -2.5559    0.0000 C   0  0  0  0  0  0  0  0  0  0  0  0
    0.1420   -1.7309    0.0000 N   0  0  0  0  0  0  0  0  0  0  0  0
    0.9267   -1.4760    0.0000 C   0  0  0  0  0  0  0  0  0  0  0  0
    1.4116   -2.1434    0.0000 C   0  0  0  0  0  0  0  0  0  0  0  0
   -0.6426   -2.8109    0.0000 N   0  0  0  0  0  0  0  0  0  0  0  0
   -1.1275   -2.1434    0.0000 C   0  0  0  0  0  0  0  0  0  0  0  0
   -0.6426   -1.4760    0.0000 C   0  0  0  0  0  0  0  0  0  0  0  0
    1.1816   -0.6914    0.0000 C   0  0  0  0  0  0  0  0  0  0  0  0
    1.9886   -0.5198    0.0000 N   0  0  0  0  0  0  0  0  0  0  0  0
    2.2435    0.2648    0.0000 C   0  0  0  0  0  0  0  0  0  0  0  0
    3.0505    0.4363    0.0000 C   0  0  0  0  0  0  0  0  0  0  0  0
    3.6025   -0.1768    0.0000 N   0  0  0  0  0  0  0  0  0  0  0  0
    3.3476   -0.9614    0.0000 C   0  0  0  0  0  0  0  0  0  0  0  0
    2.5406   -1.1329    0.0000 C   0  0  0  0  0  0  0  0  0  0  0  0
   -2.3650    2.8579    0.0000 O   0  0  0  0  0  0  0  0  0  0  0  0
   -3.1900    2.8579    0.0000 C   0  0  0  0  0  0  0  0  0  0  0  0
   -0.7150    2.8579    0.0000 O   0  0  0  0  0  0  0  0  0  0  0  0
    0.1100    2.8579    0.0000 C   0  0  0  0  0  0  0  0  0  0  0  0
    0.1100    1.4289    0.0000 O   0  0  0  0  0  0  0  0  0  0  0  0
    0.5225    0.7145    0.0000 C   0  0  0  0  0  0  0  0  0  0  0  0
  1  2  1  0      
  2  3  1  0      
  3  4  2  0      
  4  5  1  0      
  5  6  2  0      
  6  7  1  0      
  2  7  2  0      
  1  8  2  0      
  1  9  1  0      
 10 11  1  0      
 11 12  2  0      
 12 13  1  0      
 13 14  2  0      
 14 15  1  0      
 10 15  2  0      
 16 17  1  0      
 17 18  1  0      
 18 19  1  0      
 19 20  2  0      
 16 20  1  0      
 21 22  1  0      
 22 23  2  0      
 17 21  2  0      
 18 23  1  0      
 25 26  1  0      
 26 27  1  0      
 27 28  1  0      
 28 29  1  0      
 29 30  1  0      
 25 30  1  0      
 24 25  1  0      
 19 24  1  0      
 11 22  1  0      
  9 10  1  0      
 31 32  1  0      
  6 31  1  0      
 33 34  1  0      
  5 33  1  0      
 35 36  1  0      
  4 35  1  0      
M  END

>  <RackCode>
HYCPK72336

>  <Cat. No.>
HY-124037

>  <Product Name>
SRT 1460

>  <ROW>
M

>  <COLUMN>
12

>  <CAS No.>
925432-73-1

>  <MWt>
507.60

>  <Target>
Sirtuin

>  <Saltdate>
Free Base

>  <Smiles>
O=C(NC1=CC=CC=C1C2=CN3C(SC=C3CN4CCNCC4)=N2)C5=CC(OC)=C(OC)C(OC)=C5

>  <Solvent>
DMSO Solution

>  <Batch No.>
81855

>  <Quantity>
10mM  * 50uL

>  <Pathway>
Cell Cycle/DNA Damage; Epigenetics

>  <Synonyms>


>  <Formula>
C26H29N5O4S

>  <Research_Area>
Cancer

>  <Clinical_Information>
No Development Reported

>  <SUPPLIER>
MedChemExpress

$$$$
Untitled Document
  ChemDraw11251613532D

 33 33  0  0  0  0  0  0  0  0999 V2000
   -3.2217   -0.0051    0.0000 C   0  0  0  0  0  0  0  0  0  0  0  0
   -3.9090   -0.4636    0.0000 C   0  0  0  0  0  0  0  0  0  0  0  0
   -3.8549   -1.2868    0.0000 C   0  0  0  0  0  0  0  0  0  0  0  0
   -4.5407   -1.7453    0.0000 C   0  0  0  0  0  0  0  0  0  0  0  0
   -5.2807   -1.3806    0.0000 C   0  0  0  0  0  0  0  0  0  0  0  0
   -5.3349   -0.5573    0.0000 C   0  0  0  0  0  0  0  0  0  0  0  0
   -4.6490   -0.0989    0.0000 C   0  0  0  0  0  0  0  0  0  0  0  0
   -3.2758    0.8181    0.0000 O   0  0  0  0  0  0  0  0  0  0  0  0
   -2.4817   -0.3699    0.0000 N   0  0  0  0  0  0  0  0  0  0  0  0
   -5.9666   -1.8390    0.0000 C   0  0  0  0  0  0  0  0  0  0  0  0
   -5.9125   -2.6623    0.0000 C   0  0  0  0  0  0  0  0  0  0  0  0
   -6.6525   -2.2975    0.0000 C   0  0  0  0  0  0  0  0  0  0  0  0
   -6.7066   -1.4743    0.0000 C   0  0  0  0  0  0  0  0  0  0  0  0
   -1.7959    0.0886    0.0000 C   0  0  0  0  0  0  0  0  0  0  0  0
   -1.8500    0.9119    0.0000 S   0  0  0  0  0  0  0  0  0  0  0  0
   -1.0559   -0.2761    0.0000 N   0  0  0  0  0  0  0  0  0  0  0  0
   -0.3700    0.1824    0.0000 C   0  0  0  0  0  0  0  0  0  0  0  0
   -0.4241    1.0056    0.0000 C   0  0  0  0  0  0  0  0  0  0  0  0
    0.2618    1.4641    0.0000 C   0  0  0  0  0  0  0  0  0  0  0  0
    1.0017    1.0993    0.0000 C   0  0  0  0  0  0  0  0  0  0  0  0
    1.0559    0.2761    0.0000 C   0  0  0  0  0  0  0  0  0  0  0  0
    0.3700   -0.1824    0.0000 C   0  0  0  0  0  0  0  0  0  0  0  0
    1.6876    1.5578    0.0000 N   0  0  0  0  0  0  0  0  0  0  0  0
    2.4276    1.1931    0.0000 C   0  0  0  0  0  0  0  0  0  0  0  0
    3.1135    1.6516    0.0000 C   0  0  0  0  0  0  0  0  0  0  0  0
    3.8549    1.2868    0.0000 C   0  0  0  0  0  0  0  0  0  0  0  0
    4.5407    1.7453    0.0000 C   0  0  0  0  0  0  0  0  0  0  0  0
    5.2807    1.3806    0.0000 C   0  0  0  0  0  0  0  0  0  0  0  0
    2.4817    0.3699    0.0000 O   0  0  0  0  0  0  0  0  0  0  0  0
    5.9666    1.8390    0.0000 N   0  0  0  0  0  0  0  0  0  0  0  0
    5.9125    2.6623    0.0000 C   0  0  0  0  0  0  0  0  0  0  0  0
    6.7066    1.4743    0.0000 C   0  0  0  0  0  0  0  0  0  0  0  0
    1.2047   -2.4443    0.0000 Cl  0  0  0  0  0  0  0  0  0  0  0  0
  1  2  1  0      
  2  3  1  0      
  3  4  2  0      
  4  5  1  0      
  5  6  2  0      
  6  7  1  0      
  2  7  2  0      
  1  8  2  0      
  1  9  1  0      
 10 11  1  0      
 10 12  1  0      
 10 13  1  0      
  5 10  1  0      
 14 15  2  0      
 17 18  1  0      
 18 19  2  0      
 19 20  1  0      
 20 21  2  0      
 21 22  1  0      
 17 22  2  0      
 24 25  1  0      
 25 26  1  0      
 26 27  1  0      
 27 28  1  0      
 24 29  2  0      
 30 31  1  0      
 30 32  1  0      
 28 30  1  0      
 23 24  1  0      
 20 23  1  0      
 16 17  1  0      
 14 16  1  0      
  9 14  1  0      
M  END

>  <RackCode>
HYCPK72336

>  <Cat. No.>
HY-15510B

>  <Product Name>
Tenovin-6 (Hydrochloride)

>  <ROW>
N

>  <COLUMN>
12

>  <CAS No.>
1011301-29-3

>  <MWt>
491.09

>  <Target>
Autophagy; Dihydroorotate Dehydrogenase; MDM-2/p53; Sirtuin

>  <Saltdate>
Hydrochloride

>  <Smiles>
O=C(NC(NC1=CC=C(NC(CCCCN(C)C)=O)C=C1)=S)C2=CC=C(C(C)(C)C)C=C2.Cl

>  <Solvent>
DMSO Solution

>  <Batch No.>
11070

>  <Quantity>
10mM  * 50uL

>  <Pathway>
Apoptosis; Autophagy; Cell Cycle/DNA Damage; Epigenetics; Metabolic Enzyme/Protease

>  <Synonyms>


>  <Formula>
C25H35ClN4O2S

>  <Research_Area>
Cancer

>  <Clinical_Information>
No Development Reported

>  <SUPPLIER>
MedChemExpress

$$$$
Untitled Document
  ChemDraw11211608312D

 35 39  0  0  0  0  0  0  0  0999 V2000
    1.4290   -1.4435    0.0000 C   0  0  0  0  0  0  0  0  0  0  0  0
    2.1434   -1.0311    0.0000 C   0  0  0  0  0  0  0  0  0  0  0  0
    2.1434   -0.2062    0.0000 C   0  0  0  0  0  0  0  0  0  0  0  0
    2.8579    0.2062    0.0000 C   0  0  0  0  0  0  0  0  0  0  0  0
    3.5724   -0.2062    0.0000 C   0  0  0  0  0  0  0  0  0  0  0  0
    3.5724   -1.0311    0.0000 C   0  0  0  0  0  0  0  0  0  0  0  0
    2.8579   -1.4435    0.0000 C   0  0  0  0  0  0  0  0  0  0  0  0
    1.4290   -2.2689    0.0000 O   0  0  0  0  0  0  0  0  0  0  0  0
    0.7145   -1.0311    0.0000 N   0  0  0  0  0  0  0  0  0  0  0  0
    4.2869    0.2062    0.0000 N   0  0  0  0  0  0  0  0  0  0  0  0
    4.2869    2.6814    0.0000 N   0  0  0  0  0  0  0  0  0  0  0  0
    5.0012    2.2689    0.0000 C   0  0  0  0  0  0  0  0  0  0  0  0
    5.0012    1.4436    0.0000 C   0  0  0  0  0  0  0  0  0  0  0  0
    4.2869    1.0311    0.0000 C   0  0  0  0  0  0  0  0  0  0  0  0
    3.5724    1.4436    0.0000 C   0  0  0  0  0  0  0  0  0  0  0  0
    2.8579    1.0311    0.0000 C   0  0  0  0  0  0  0  0  0  0  0  0
    2.1434    1.4436    0.0000 C   0  0  0  0  0  0  0  0  0  0  0  0
    2.1434    2.2689    0.0000 C   0  0  0  0  0  0  0  0  0  0  0  0
    2.8579    2.6814    0.0000 C   0  0  0  0  0  0  0  0  0  0  0  0
    3.5724    2.2689    0.0000 C   0  0  0  0  0  0  0  0  0  0  0  0
   -0.0000   -1.4435    0.0000 C   0  0  0  0  0  0  0  0  0  0  0  0
   -0.0000   -2.2689    0.0000 C   0  0  0  0  0  0  0  0  0  0  0  0
   -0.7145   -2.6814    0.0000 C   0  0  0  0  0  0  0  0  0  0  0  0
   -1.4290   -2.2689    0.0000 C   0  0  0  0  0  0  0  0  0  0  0  0
   -1.4290   -1.4435    0.0000 C   0  0  0  0  0  0  0  0  0  0  0  0
   -0.7145   -1.0311    0.0000 C   0  0  0  0  0  0  0  0  0  0  0  0
   -2.1434   -2.6814    0.0000 N   0  0  0  0  0  0  0  0  0  0  0  0
   -4.2869   -2.2689    0.0000 C   0  0  0  0  0  0  0  0  0  0  0  0
   -3.5724   -2.6814    0.0000 N   0  0  0  0  0  0  0  0  0  0  0  0
   -2.8579   -2.2689    0.0000 C   0  0  0  0  0  0  0  0  0  0  0  0
   -2.8579   -1.4435    0.0000 C   0  0  0  0  0  0  0  0  0  0  0  0
   -3.5724   -1.0311    0.0000 C   0  0  0  0  0  0  0  0  0  0  0  0
   -4.2869   -1.4435    0.0000 N   0  0  0  0  0  0  0  0  0  0  0  0
   -3.5724   -0.2062    0.0000 C   0  0  0  0  0  0  0  0  0  0  0  0
   -5.0012   -2.6814    0.0000 N   0  0  0  0  0  0  0  0  0  0  0  0
  1  2  1  0      
  2  3  1  0      
  3  4  2  0      
  4  5  1  0      
  5  6  2  0      
  6  7  1  0      
  2  7  2  0      
  1  8  2  0      
  1  9  1  0      
 11 12  2  0      
 12 13  1  0      
 13 14  2  0      
 14 15  1  0      
 15 16  2  0      
 16 17  1  0      
 17 18  2  0      
 18 19  1  0      
 19 20  2  0      
 11 20  1  0      
 15 20  1  0      
 10 14  1  0      
  5 10  1  0      
 21 22  1  0      
 22 23  2  0      
 23 24  1  0      
 24 25  2  0      
 25 26  1  0      
 21 26  2  0      
 28 29  1  0      
 29 30  2  0      
 30 31  1  0      
 31 32  2  0      
 32 33  1  0      
 28 33  2  0      
 32 34  1  0      
 28 35  1  0      
 27 30  1  0      
 24 27  1  0      
  9 21  1  0      
M  END

>  <RackCode>
HYCPK72336

>  <Cat. No.>
HY-13962

>  <Product Name>
SGI-1027

>  <ROW>
O

>  <COLUMN>
12

>  <CAS No.>
1020149-73-8

>  <MWt>
461.52

>  <Target>
Apoptosis; DNA Methyltransferase

>  <Saltdate>
Free Base

>  <Smiles>
O=C(NC1=CC=C(NC2=NC(N)=NC(C)=C2)C=C1)C3=CC=C(NC4=CC=NC5=CC=CC=C45)C=C3

>  <Solvent>
DMSO Solution

>  <Batch No.>
11454

>  <Quantity>
10mM  * 50uL

>  <Pathway>
Apoptosis; Epigenetics

>  <Synonyms>


>  <Formula>
C27H23N7O

>  <Research_Area>
Cancer

>  <Clinical_Information>
No Development Reported

>  <SUPPLIER>
MedChemExpress

$$$$
Untitled Document
  ChemDraw03201716372D

 27 29  0  0  0  0  0  0  0  0999 V2000
    1.0717    0.6740    0.0000 C   0  0  0  0  0  0  0  0  0  0  0  0
    1.0717   -0.1510    0.0000 C   0  0  0  0  0  0  0  0  0  0  0  0
    0.3572   -0.5635    0.0000 C   0  0  0  0  0  0  0  0  0  0  0  0
   -0.3572   -0.1510    0.0000 C   0  0  0  0  0  0  0  0  0  0  0  0
   -0.3572    0.6740    0.0000 C   0  0  0  0  0  0  0  0  0  0  0  0
    0.3572    1.0865    0.0000 C   0  0  0  0  0  0  0  0  0  0  0  0
    1.7861    1.0865    0.0000 S   0  0  0  0  0  0  0  0  0  0  0  0
    2.1986    0.3720    0.0000 O   0  0  0  0  0  0  0  0  0  0  0  0
    1.3737    1.8009    0.0000 O   0  0  0  0  0  0  0  0  0  0  0  0
    2.5005    1.4990    0.0000 N   0  0  0  0  0  0  0  0  0  0  0  0
    3.2150    1.0865    0.0000 C   0  0  0  0  0  0  0  0  0  0  0  0
    3.9295    1.4990    0.0000 C   0  0  0  0  0  0  0  0  0  0  0  0
    4.6440    1.0865    0.0000 C   0  0  0  0  0  0  0  0  0  0  0  0
    4.6440    0.2615    0.0000 C   0  0  0  0  0  0  0  0  0  0  0  0
    3.9295   -0.1510    0.0000 C   0  0  0  0  0  0  0  0  0  0  0  0
    3.2150    0.2615    0.0000 N   0  0  0  0  0  0  0  0  0  0  0  0
   -1.0717   -0.5635    0.0000 N   0  0  0  0  0  0  0  0  0  0  0  0
   -1.7861   -0.1510    0.0000 N   0  0  0  0  0  0  0  0  0  0  0  0
   -2.5005   -0.5635    0.0000 C   0  0  0  0  0  0  0  0  0  0  0  0
   -2.5005   -1.3885    0.0000 C   0  0  0  0  0  0  0  0  0  0  0  0
   -3.2150   -1.8009    0.0000 C   0  0  0  0  0  0  0  0  0  0  0  0
   -3.9295   -1.3885    0.0000 C   0  0  0  0  0  0  0  0  0  0  0  0
   -3.9295   -0.5635    0.0000 C   0  0  0  0  0  0  0  0  0  0  0  0
   -3.2150   -0.1510    0.0000 C   0  0  0  0  0  0  0  0  0  0  0  0
   -4.6440   -0.1510    0.0000 C   0  0  0  0  0  0  0  0  0  0  0  0
   -4.6440   -1.8009    0.0000 O   0  0  0  0  0  0  0  0  0  0  0  0
   -1.7861   -1.8009    0.0000 N   0  0  0  0  0  0  0  0  0  0  0  0
  1  2  1  0      
  2  3  2  0      
  3  4  1  0      
  4  5  2  0      
  5  6  1  0      
  1  6  2  0      
  7  8  2  0      
  7  9  2  0      
  7 10  1  0      
  1  7  1  0      
 11 12  1  0      
 12 13  2  0      
 13 14  1  0      
 14 15  2  0      
 15 16  1  0      
 11 16  2  0      
 10 11  1  0      
 17 18  2  0      
 19 20  1  0      
 20 21  2  0      
 21 22  1  0      
 22 23  2  0      
 23 24  1  0      
 19 24  2  0      
 23 25  1  0      
 22 26  1  0      
 20 27  1  0      
 18 19  1  0      
  4 17  1  0      
M  END

>  <RackCode>
HYCPK72336

>  <Cat. No.>
HY-13959

>  <Product Name>
MS436

>  <ROW>
P

>  <COLUMN>
12

>  <CAS No.>
1395084-25-9

>  <MWt>
383.42428

>  <Target>
Epigenetic Reader Domain

>  <Saltdate>
Free Base

>  <Smiles>
O=S(C1=CC=C(/N=N/C2=CC(C)=C(O)C=C2N)C=C1)(NC3=NC=CC=C3)=O

>  <Solvent>
DMSO Solution

>  <Batch No.>
11084

>  <Quantity>
10mM  * 50uL

>  <Pathway>
Epigenetics

>  <Synonyms>


>  <Formula>
C18H17N5O3S

>  <Research_Area>
Cancer

>  <Clinical_Information>
No Development Reported

>  <SUPPLIER>
MedChemExpress

$$$$
Untitled Document
  ChemDraw12092015512D

 34 37  0  0  0  0  0  0  0  0999 V2000
    4.0529    0.9085    0.0000 C   0  0  0  0  0  0  0  0  0  0  0  0
    3.3384    0.4960    0.0000 C   0  0  0  0  0  0  0  0  0  0  0  0
    3.3384   -0.3290    0.0000 C   0  0  0  0  0  0  0  0  0  0  0  0
    4.0529   -0.7415    0.0000 C   0  0  0  0  0  0  0  0  0  0  0  0
    4.8066   -0.4059    0.0000 C   0  0  0  0  0  0  0  0  0  0  0  0
    5.3586   -1.0190    0.0000 N   0  0  0  0  0  0  0  0  0  0  0  0
    6.1790   -0.9328    0.0000 C   0  0  0  0  0  0  0  0  0  0  0  0
    6.5145   -0.1791    0.0000 C   0  0  0  0  0  0  0  0  0  0  0  0
    6.6639   -1.6002    0.0000 C   0  0  0  0  0  0  0  0  0  0  0  0
    4.9461   -1.7335    0.0000 N   0  0  0  0  0  0  0  0  0  0  0  0
    4.1391   -1.5620    0.0000 C   0  0  0  0  0  0  0  0  0  0  0  0
    2.6239   -0.7415    0.0000 N   0  0  0  0  0  0  0  0  0  0  0  0
    1.9095   -0.3290    0.0000 C   0  0  0  0  0  0  0  0  0  0  0  0
    1.1951   -0.7415    0.0000 N   0  0  0  0  0  0  0  0  0  0  0  0
    0.4806   -0.3290    0.0000 C   0  0  0  0  0  0  0  0  0  0  0  0
    0.4806    0.4960    0.0000 C   0  0  0  0  0  0  0  0  0  0  0  0
   -0.2338    0.9085    0.0000 C   0  0  0  0  0  0  0  0  0  0  0  0
   -0.9483    0.4960    0.0000 C   0  0  0  0  0  0  0  0  0  0  0  0
   -1.6628    0.9085    0.0000 C   0  0  0  0  0  0  0  0  0  0  0  0
   -2.3772    0.4960    0.0000 N   0  0  0  0  0  0  0  0  0  0  0  0
   -3.0916    0.9085    0.0000 C   0  0  0  0  0  0  0  0  0  0  0  0
   -3.8061    0.4960    0.0000 C   0  0  0  0  0  0  0  0  0  0  0  0
   -4.5206    0.9085    0.0000 C   0  0  0  0  0  0  0  0  0  0  0  0
   -5.2350    0.4960    0.0000 C   0  0  0  0  0  0  0  0  0  0  0  0
   -5.9494    0.9085    0.0000 N   0  0  0  0  0  0  0  0  0  0  0  0
   -5.9494    1.7335    0.0000 C   0  0  0  0  0  0  0  0  0  0  0  0
   -6.6639    0.4960    0.0000 C   0  0  0  0  0  0  0  0  0  0  0  0
   -3.0916    1.7335    0.0000 O   0  0  0  0  0  0  0  0  0  0  0  0
   -2.3772   -0.3290    0.0000 C   0  0  0  0  0  0  0  0  0  0  0  0
   -1.6628   -0.7415    0.0000 C   0  0  0  0  0  0  0  0  0  0  0  0
   -0.9483   -0.3290    0.0000 C   0  0  0  0  0  0  0  0  0  0  0  0
   -0.2338   -0.7415    0.0000 C   0  0  0  0  0  0  0  0  0  0  0  0
    1.9095    0.4960    0.0000 N   0  0  0  0  0  0  0  0  0  0  0  0
    2.6239    0.9085    0.0000 C   0  0  0  0  0  0  0  0  0  0  0  0
  1  2  1  0      
  2  3  2  0      
  3  4  1  0      
  4  5  2  0      
  5  6  1  0      
  6  7  1  0      
  7  8  1  0      
  7  9  1  0      
  6 10  1  0      
 10 11  2  0      
  4 11  1  0      
  3 12  1  0      
 12 13  2  0      
 13 14  1  0      
 14 15  1  0      
 15 16  2  0      
 16 17  1  0      
 17 18  2  0      
 18 19  1  0      
 19 20  1  0      
 20 21  1  0      
 21 22  1  0      
 22 23  2  0      
 23 24  1  0      
 24 25  1  0      
 25 26  1  0      
 25 27  1  0      
 21 28  2  0      
 20 29  1  0      
 29 30  1  0      
 18 31  1  0      
 30 31  1  0      
 31 32  2  0      
 15 32  1  0      
 13 33  1  0      
 33 34  2  0      
  2 34  1  0      
M  END

>  <RackCode>
HYCPK72336

>  <Cat. No.>
HY-131906

>  <Product Name>
JAK2-IN-7

>  <ROW>
A

>  <COLUMN>
13

>  <CAS No.>
2593402-36-7

>  <MWt>
459.59

>  <Target>
Apoptosis; FLT3; JAK

>  <Saltdate>


>  <Smiles>
CC1=C(N=C(N=C1)NC2=CC=C3CN(CCC3=C2)C(/C=C/CN(C)C)=O)C4=CN(N=C4)C(C)C

>  <Solvent>
DMSO Solution

>  <Batch No.>
99045

>  <Quantity>
10mM  * 50uL

>  <Pathway>
Apoptosis; Epigenetics; JAK/STAT Signaling; Protein Tyrosine Kinase/RTK; Stem Cell/Wnt

>  <Synonyms>


>  <Formula>
C26H33N7O

>  <Research_Area>
Cancer

>  <Clinical_Information>
No Development Reported

>  <SUPPLIER>
MedChemExpress

$$$$
Untitled Document
  ChemDraw10211611142D

 26 28  0  0  0  0  0  0  0  0999 V2000
   -1.6158   -0.1367    0.0000 S   0  0  0  0  0  0  0  0  0  0  0  0
   -2.3314    0.2735    0.0000 N   0  0  0  0  0  0  0  0  0  0  0  0
   -0.9002   -0.5561    0.0000 C   0  0  0  0  0  0  0  0  0  0  0  0
    1.2603   -0.2006    0.0000 C   0  0  0  0  0  0  0  0  0  0  0  0
    1.9850   -0.6108    0.0000 N   0  0  0  0  0  0  0  0  0  0  0  0
    0.5401   -0.6108    0.0000 C   0  0  0  0  0  0  0  0  0  0  0  0
   -0.1345   -0.1960    0.0000 C   0  0  0  0  0  0  0  0  0  0  0  0
   -2.0306   -0.8569    0.0000 O   0  0  0  0  0  0  0  0  0  0  0  0
   -1.2010    0.5743    0.0000 O   0  0  0  0  0  0  0  0  0  0  0  0
    2.7006   -0.2006    0.0000 C   0  0  0  0  0  0  0  0  0  0  0  0
    1.2603    0.6244    0.0000 O   0  0  0  0  0  0  0  0  0  0  0  0
    2.7006    0.6199    0.0000 C   0  0  0  0  0  0  0  0  0  0  0  0
    3.4436    1.0073    0.0000 C   0  0  0  0  0  0  0  0  0  0  0  0
    3.4436    1.8414    0.0000 Br  0  0  0  0  0  0  0  0  0  0  0  0
   -2.2539    1.0848    0.0000 C   0  0  0  0  0  0  0  0  0  0  0  0
   -3.0015   -0.2006    0.0000 C   0  0  0  0  0  0  0  0  0  0  0  0
   -0.9002   -1.3902    0.0000 C   0  0  0  0  0  0  0  0  0  0  0  0
    0.5492   -1.4403    0.0000 C   0  0  0  0  0  0  0  0  0  0  0  0
   -0.1846   -1.8414    0.0000 C   0  0  0  0  0  0  0  0  0  0  0  0
    4.0863   -0.2097    0.0000 C   0  0  0  0  0  0  0  0  0  0  0  0
    3.3980   -0.6062    0.0000 C   0  0  0  0  0  0  0  0  0  0  0  0
    4.0863    0.6108    0.0000 C   0  0  0  0  0  0  0  0  0  0  0  0
   -3.7991    0.0501    0.0000 C   0  0  0  0  0  0  0  0  0  0  0  0
   -2.8510    1.6454    0.0000 C   0  0  0  0  0  0  0  0  0  0  0  0
   -3.6624    1.5543    0.0000 C   0  0  0  0  0  0  0  0  0  0  0  0
   -4.0863    0.7840    0.0000 C   0  0  0  0  0  0  0  0  0  0  0  0
  2  1  1  0      
  3  1  1  0      
  4  6  1  0      
  5  4  1  0      
  6  7  1  0      
  7  3  2  0      
  8  1  2  0      
  9  1  2  0      
 10  5  1  0      
 11  4  2  0      
 12 10  2  0      
 13 12  1  0      
 14 13  1  0      
 15  2  1  0      
 16  2  1  0      
 17  3  1  0      
 18 19  1  0      
 19 17  2  0      
 20 21  2  0      
 21 10  1  0      
 22 20  1  0      
 23 16  1  0      
 24 15  1  0      
 25 24  1  0      
 26 23  1  0      
 18  6  2  0      
 25 26  1  0      
 13 22  2  0      
M  END

>  <RackCode>
HYCPK72336

>  <Cat. No.>
HY-16691

>  <Product Name>
AK-7

>  <ROW>
B

>  <COLUMN>
13

>  <CAS No.>
420831-40-9

>  <MWt>
437.35

>  <Target>
Sirtuin

>  <Saltdate>
Free Base

>  <Smiles>
O=S(N1CCCCCC1)(C2=CC(C(NC3=CC(Br)=CC=C3)=O)=CC=C2)=O

>  <Solvent>
DMSO Solution

>  <Batch No.>
22450

>  <Quantity>
10mM  * 50uL

>  <Pathway>
Cell Cycle/DNA Damage; Epigenetics

>  <Synonyms>


>  <Formula>
C19H21BrN2O3S

>  <Research_Area>
Neurological Disease

>  <Clinical_Information>
No Development Reported

>  <SUPPLIER>
MedChemExpress

$$$$
Untitled Document
  ChemDraw12291512472D

 21 22  0  0  0  0  0  0  0  0999 V2000
   -1.0717    1.0305    0.0000 C   0  0  0  0  0  0  0  0  0  0  0  0
   -1.0717    0.2055    0.0000 C   0  0  0  0  0  0  0  0  0  0  0  0
   -0.3572   -0.2070    0.0000 C   0  0  0  0  0  0  0  0  0  0  0  0
    0.3572    0.2055    0.0000 C   0  0  0  0  0  0  0  0  0  0  0  0
    0.3572    1.0305    0.0000 C   0  0  0  0  0  0  0  0  0  0  0  0
   -0.3572    1.4430    0.0000 C   0  0  0  0  0  0  0  0  0  0  0  0
   -1.7837   -0.2055    0.0000 N   0  0  0  0  0  0  0  0  0  0  0  0
   -2.4957    0.2055    0.0000 C   0  0  0  0  0  0  0  0  0  0  0  0
   -2.4957    1.0277    0.0000 O   0  0  0  0  0  0  0  0  0  0  0  0
   -3.2077   -0.2055    0.0000 C   0  0  0  0  0  0  0  0  0  0  0  0
    1.0692    1.4416    0.0000 C   0  0  0  0  0  0  0  0  0  0  0  0
    1.7812    1.0305    0.0000 N   0  0  0  0  0  0  0  0  0  0  0  0
    1.0692    2.2637    0.0000 O   0  0  0  0  0  0  0  0  0  0  0  0
    1.7812    0.2084    0.0000 C   0  0  0  0  0  0  0  0  0  0  0  0
    1.0667   -0.2041    0.0000 C   0  0  0  0  0  0  0  0  0  0  0  0
    1.0667   -1.0291    0.0000 C   0  0  0  0  0  0  0  0  0  0  0  0
    1.7812   -1.4416    0.0000 C   0  0  0  0  0  0  0  0  0  0  0  0
    2.4957   -1.0291    0.0000 C   0  0  0  0  0  0  0  0  0  0  0  0
    2.4957   -0.2041    0.0000 C   0  0  0  0  0  0  0  0  0  0  0  0
    1.7812   -2.2637    0.0000 F   0  0  0  0  0  0  0  0  0  0  0  0
    3.2077    0.2070    0.0000 N   0  0  0  0  0  0  0  0  0  0  0  0
  1  2  2  0      
  2  3  1  0      
  3  4  2  0      
  4  5  1  0      
  5  6  2  0      
  6  1  1  0      
  2  7  1  0      
  7  8  1  0      
  8  9  2  0      
  8 10  1  0      
  5 11  1  0      
 11 12  1  0      
 11 13  2  0      
 12 14  1  0      
 14 15  2  0      
 15 16  1  0      
 16 17  2  0      
 17 18  1  0      
 18 19  2  0      
 19 14  1  0      
 17 20  1  0      
 19 21  1  0      
M  END

>  <RackCode>
HYCPK72336

>  <Cat. No.>
HY-19618

>  <Product Name>
BRD3308

>  <ROW>
C

>  <COLUMN>
13

>  <CAS No.>
1550053-02-5

>  <MWt>
287.29

>  <Target>
Apoptosis; HDAC; HIV

>  <Saltdate>
Free Base

>  <Smiles>
O=C(C)NC1=CC=C(C(NC2=CC=C(F)C=C2N)=O)C=C1

>  <Solvent>
DMSO Solution

>  <Batch No.>
105491

>  <Quantity>
10mM  * 50uL

>  <Pathway>
Anti-infection; Apoptosis; Cell Cycle/DNA Damage; Epigenetics

>  <Synonyms>


>  <Formula>
C15H14FN3O2

>  <Research_Area>
Infection; Metabolic Disease

>  <Clinical_Information>
No Development Reported

>  <SUPPLIER>
MedChemExpress

$$$$
Untitled Document
  ChemDraw08032010522D

 30 32  0  0  0  0  0  0  0  0999 V2000
   -1.7862   -0.6187    0.0000 C   0  0  0  0  0  0  0  0  0  0  0  0
   -2.5006   -1.0313    0.0000 C   0  0  0  0  0  0  0  0  0  0  0  0
   -2.0881   -1.7457    0.0000 C   0  0  0  0  0  0  0  0  0  0  0  0
   -1.7862    0.2062    0.0000 O   0  0  0  0  0  0  0  0  0  0  0  0
   -1.0717   -1.0313    0.0000 N   0  0  0  0  0  0  0  0  0  0  0  0
   -2.9131   -1.7457    0.0000 C   0  0  0  0  0  0  0  0  0  0  0  0
   -0.3572   -0.6187    0.0000 C   0  0  0  0  0  0  0  0  0  0  0  0
   -0.3572    0.2062    0.0000 C   0  0  0  0  0  0  0  0  0  0  0  0
    0.3572    0.6187    0.0000 C   0  0  0  0  0  0  0  0  0  0  0  0
    1.0717    0.2062    0.0000 C   0  0  0  0  0  0  0  0  0  0  0  0
    1.0717   -0.6187    0.0000 C   0  0  0  0  0  0  0  0  0  0  0  0
    0.3572   -1.0313    0.0000 C   0  0  0  0  0  0  0  0  0  0  0  0
    1.7862    0.6187    0.0000 O   0  0  0  0  0  0  0  0  0  0  0  0
    2.5006    0.2062    0.0000 C   0  0  0  0  0  0  0  0  0  0  0  0
    3.2151    0.6187    0.0000 C   0  0  0  0  0  0  0  0  0  0  0  0
    3.2151    1.4437    0.0000 C   0  0  0  0  0  0  0  0  0  0  0  0
    3.9296    1.8563    0.0000 C   0  0  0  0  0  0  0  0  0  0  0  0
    4.6441    1.4437    0.0000 C   0  0  0  0  0  0  0  0  0  0  0  0
    4.6441    0.6187    0.0000 C   0  0  0  0  0  0  0  0  0  0  0  0
    3.9296    0.2062    0.0000 C   0  0  0  0  0  0  0  0  0  0  0  0
    5.3585    1.8563    0.0000 C   0  0  0  0  0  0  0  0  0  0  0  0
    6.0730    2.2687    0.0000 N   0  0  0  0  0  0  0  0  0  0  0  0
   -3.2151   -0.6187    0.0000 O   0  0  0  0  0  0  0  0  0  0  0  0
   -3.9296   -1.0313    0.0000 C   0  0  0  0  0  0  0  0  0  0  0  0
   -3.9296   -1.8563    0.0000 C   0  0  0  0  0  0  0  0  0  0  0  0
   -4.6441   -2.2687    0.0000 C   0  0  0  0  0  0  0  0  0  0  0  0
   -5.3585   -1.8563    0.0000 C   0  0  0  0  0  0  0  0  0  0  0  0
   -5.3585   -1.0313    0.0000 C   0  0  0  0  0  0  0  0  0  0  0  0
   -4.6441   -0.6187    0.0000 C   0  0  0  0  0  0  0  0  0  0  0  0
   -6.0730   -2.2687    0.0000 Cl  0  0  0  0  0  0  0  0  0  0  0  0
  1  2  1  0      
  2  3  1  0      
  1  4  2  0      
  1  5  1  0      
  2  6  1  0      
  7  8  1  0      
  8  9  2  0      
  9 10  1  0      
 10 11  2  0      
 11 12  1  0      
  7 12  2  0      
 14 15  1  0      
 15 16  1  0      
 16 17  2  0      
 17 18  1  0      
 18 19  2  0      
 19 20  1  0      
 15 20  2  0      
 21 22  3  0      
 18 21  1  0      
 13 14  1  0      
 10 13  1  0      
  5  7  1  0      
 24 25  1  0      
 25 26  2  0      
 26 27  1  0      
 27 28  2  0      
 28 29  1  0      
 24 29  2  0      
 23 24  1  0      
 27 30  1  0      
  2 23  1  0      
M  END

>  <RackCode>
HYCPK72336

>  <Cat. No.>
HY-131334

>  <Product Name>
AMPK activator 4

>  <ROW>
D

>  <COLUMN>
13

>  <CAS No.>
2493239-46-4

>  <MWt>
420.89

>  <Target>
AMPK

>  <Saltdate>


>  <Smiles>
CC(C)(OC1=CC=C(Cl)C=C1)C(NC2=CC=C(OCC3=CC=C(C#N)C=C3)C=C2)=O

>  <Solvent>
DMSO Solution

>  <Batch No.>
90856

>  <Quantity>
10mM  * 50uL

>  <Pathway>
Epigenetics; PI3K/Akt/mTOR

>  <Synonyms>


>  <Formula>
C24H21ClN2O3

>  <Research_Area>
Metabolic Disease

>  <Clinical_Information>
No Development Reported

>  <SUPPLIER>
MedChemExpress

$$$$
Untitled Document
  ChemDraw03052116442D

 22 23  0  0  0  0  0  0  0  0999 V2000
    0.3572   -0.6187    0.0000 C   0  0  0  0  0  0  0  0  0  0  0  0
   -0.3572   -0.2062    0.0000 C   0  0  0  0  0  0  0  0  0  0  0  0
   -1.0717   -0.6187    0.0000 C   0  0  0  0  0  0  0  0  0  0  0  0
    0.3572   -1.4437    0.0000 O   0  0  0  0  0  0  0  0  0  0  0  0
    1.0717   -0.2062    0.0000 N   0  0  0  0  0  0  0  0  0  0  0  0
    1.7861   -0.6187    0.0000 C   0  0  0  0  0  0  0  0  0  0  0  0
    2.5005   -0.2062    0.0000 C   0  0  0  0  0  0  0  0  0  0  0  0
    3.2150   -0.6187    0.0000 C   0  0  0  0  0  0  0  0  0  0  0  0
    3.9295   -0.2062    0.0000 C   0  0  0  0  0  0  0  0  0  0  0  0
    3.9295    0.6187    0.0000 C   0  0  0  0  0  0  0  0  0  0  0  0
    3.2150    1.0313    0.0000 C   0  0  0  0  0  0  0  0  0  0  0  0
    2.5005    0.6187    0.0000 C   0  0  0  0  0  0  0  0  0  0  0  0
   -1.7861   -0.2062    0.0000 C   0  0  0  0  0  0  0  0  0  0  0  0
   -2.5005   -0.6187    0.0000 C   0  0  0  0  0  0  0  0  0  0  0  0
   -3.2150   -0.2062    0.0000 C   0  0  0  0  0  0  0  0  0  0  0  0
   -3.2150    0.6187    0.0000 C   0  0  0  0  0  0  0  0  0  0  0  0
   -2.5005    1.0313    0.0000 C   0  0  0  0  0  0  0  0  0  0  0  0
   -1.7861    0.6187    0.0000 C   0  0  0  0  0  0  0  0  0  0  0  0
   -3.9295    1.0313    0.0000 O   0  0  0  0  0  0  0  0  0  0  0  0
   -3.9295   -0.6187    0.0000 O   0  0  0  0  0  0  0  0  0  0  0  0
   -0.3572    0.6187    0.0000 C   0  0  0  0  0  0  0  0  0  0  0  0
   -0.3572    1.4437    0.0000 N   0  0  0  0  0  0  0  0  0  0  0  0
  1  2  1  0      
  2  3  2  0      
  1  4  2  0      
  1  5  1  0      
  7  8  1  0      
  8  9  2  0      
  9 10  1  0      
 10 11  2  0      
 11 12  1  0      
  7 12  2  0      
  6  7  1  0      
  5  6  1  0      
 13 14  1  0      
 14 15  2  0      
 15 16  1  0      
 16 17  2  0      
 17 18  1  0      
 13 18  2  0      
 16 19  1  0      
 15 20  1  0      
  3 13  1  0      
 21 22  3  0      
  2 21  1  0      
M  END

>  <RackCode>
HYCPK72336

>  <Cat. No.>
HY-107459

>  <Product Name>
(E/Z)-AG490

>  <ROW>
E

>  <COLUMN>
13

>  <CAS No.>
134036-52-5

>  <MWt>
294.30

>  <Target>
EGFR; JAK; STAT

>  <Saltdate>
Free Base

>  <Smiles>
O=C(NCC1=CC=CC=C1)/C(C#N)=C/C2=CC=C(O)C(O)=C2

>  <Solvent>
DMSO Solution

>  <Batch No.>
252863

>  <Quantity>
10mM  * 50uL

>  <Pathway>
Epigenetics; JAK/STAT Signaling; Protein Tyrosine Kinase/RTK; Stem Cell/Wnt

>  <Synonyms>
(E/Z)-Tyrphostin AG490; (E/Z)-Tyrphostin B42

>  <Formula>
C17H14N2O3

>  <Research_Area>
Cancer

>  <Clinical_Information>
No Development Reported

>  <SUPPLIER>
MedChemExpress

$$$$
Untitled Document
  ChemDraw05251710552D

 13 13  0  0  0  0  0  0  0  0999 V2000
    1.7862   -0.8250    0.0000 C   0  0  0  0  0  0  0  0  0  0  0  0
   -1.7862    0.4125    0.0000 C   0  0  0  0  0  0  0  0  0  0  0  0
   -1.7862   -0.4125    0.0000 C   0  0  0  0  0  0  0  0  0  0  0  0
    1.0717    0.4125    0.0000 C   0  0  0  0  0  0  0  0  0  0  0  0
    1.0717   -0.4125    0.0000 C   0  0  0  0  0  0  0  0  0  0  0  0
    0.3572    0.8250    0.0000 C   0  0  0  0  0  0  0  0  0  0  0  0
    0.3572   -0.8250    0.0000 C   0  0  0  0  0  0  0  0  0  0  0  0
   -0.3572    0.4125    0.0000 C   0  0  0  0  0  0  0  0  0  0  0  0
   -0.3572   -0.4125    0.0000 C   0  0  0  0  0  0  0  0  0  0  0  0
    0.3572    1.6500    0.0000 O   0  0  0  0  0  0  0  0  0  0  0  0
    0.3572   -1.6500    0.0000 O   0  0  0  0  0  0  0  0  0  0  0  0
   -1.0717    0.8250    0.0000 O   0  0  0  0  0  0  0  0  0  0  0  0
   -1.0717   -0.8250    0.0000 O   0  0  0  0  0  0  0  0  0  0  0  0
  5  1  1  0      
  5  4  2  0      
  6  4  1  0      
  7  5  1  0      
  8  6  1  0      
  9  7  1  0      
  9  8  2  0      
 10  6  2  0      
 11  7  2  0      
 12  2  1  0      
 12  8  1  0      
 13  3  1  0      
 13  9  1  0      
M  END

>  <RackCode>
HYCPK72336

>  <Cat. No.>
HY-W016412

>  <Product Name>
Coenzyme Q0

>  <ROW>
F

>  <COLUMN>
13

>  <CAS No.>
605-94-7

>  <MWt>
182.18

>  <Target>
Akt; Apoptosis; Autophagy; Bcl-2 Family; Caspase; COX; EGFR; Interleukin Related; MMP; mTOR; NF-¦ÊB; NO Synthase; PARP; Reactive Oxygen Species; TNF Receptor

>  <Saltdate>


>  <Smiles>
O=C1C(OC)=C(OC)C(C(C)=C1)=O

>  <Solvent>
DMSO Solution

>  <Batch No.>
237077

>  <Quantity>
10mM  * 50uL

>  <Pathway>
Apoptosis; Autophagy; Cell Cycle/DNA Damage; Epigenetics; Immunology/Inflammation; JAK/STAT Signaling; Metabolic Enzyme/Protease; NF-¦ÊB; PI3K/Akt/mTOR; Protein Tyrosine Kinase/RTK

>  <Synonyms>
CoQ0

>  <Formula>
C9H10O4

>  <Research_Area>
Cancer; Inflammation/Immunology; Neurological Disease

>  <Clinical_Information>
No Development Reported

>  <SUPPLIER>
MedChemExpress

$$$$
Untitled Document
  ChemDraw03011813222D

 22 23  0  0  0  0  0  0  0  0999 V2000
   -2.1434   -0.2062    0.0000 C   0  0  0  0  0  0  0  0  0  0  0  0
   -2.1434   -1.0313    0.0000 C   0  0  0  0  0  0  0  0  0  0  0  0
   -1.4289   -1.4438    0.0000 C   0  0  0  0  0  0  0  0  0  0  0  0
   -0.7145   -1.0313    0.0000 C   0  0  0  0  0  0  0  0  0  0  0  0
   -0.7145   -0.2062    0.0000 C   0  0  0  0  0  0  0  0  0  0  0  0
   -1.4289    0.2062    0.0000 C   0  0  0  0  0  0  0  0  0  0  0  0
   -2.8579    0.2062    0.0000 C   0  0  0  0  0  0  0  0  0  0  0  0
   -2.8579    1.0313    0.0000 C   0  0  0  0  0  0  0  0  0  0  0  0
   -3.5724    1.4437    0.0000 C   0  0  0  0  0  0  0  0  0  0  0  0
   -4.2868    1.0313    0.0000 C   0  0  0  0  0  0  0  0  0  0  0  0
   -4.2868    0.2062    0.0000 C   0  0  0  0  0  0  0  0  0  0  0  0
   -3.5724   -0.2062    0.0000 C   0  0  0  0  0  0  0  0  0  0  0  0
    0.0000   -1.4438    0.0000 C   0  0  0  0  0  0  0  0  0  0  0  0
    0.0000   -2.2688    0.0000 O   0  0  0  0  0  0  0  0  0  0  0  0
    0.7145   -1.0313    0.0000 N   0  0  0  0  0  0  0  0  0  0  0  0
    1.4289   -1.4438    0.0000 N   0  0  0  0  0  0  0  0  0  0  0  0
    2.1434   -1.0313    0.0000 C   0  0  0  0  0  0  0  0  0  0  0  0
    2.8579   -1.4438    0.0000 C   0  0  0  0  0  0  0  0  0  0  0  0
    3.5724   -1.0313    0.0000 C   0  0  0  0  0  0  0  0  0  0  0  0
    4.2868   -1.4438    0.0000 C   0  0  0  0  0  0  0  0  0  0  0  0
   -3.5724    2.2688    0.0000 F   0  0  0  0  0  0  0  0  0  0  0  0
   -2.1434    1.4437    0.0000 F   0  0  0  0  0  0  0  0  0  0  0  0
  1  2  1  0      
  2  3  2  0      
  3  4  1  0      
  4  5  2  0      
  5  6  1  0      
  1  6  2  0      
  7  8  1  0      
  8  9  2  0      
  9 10  1  0      
 10 11  2  0      
 11 12  1  0      
  7 12  2  0      
  1  7  1  0      
 13 14  2  0      
 15 16  1  0      
 17 18  1  0      
 18 19  1  0      
 19 20  1  0      
 16 17  1  0      
 13 15  1  0      
  4 13  1  0      
  9 21  1  0      
  8 22  1  0      
M  END

>  <RackCode>
HYCPK72336

>  <Cat. No.>
HY-111400

>  <Product Name>
SR-4370

>  <ROW>
G

>  <COLUMN>
13

>  <CAS No.>
1816294-67-3

>  <MWt>
304.33

>  <Target>
HDAC

>  <Saltdate>
Free Base

>  <Smiles>
O=C(C1=CC=C(C2=CC=CC(F)=C2F)C=C1)NNCCCC

>  <Solvent>
DMSO Solution

>  <Batch No.>
29867

>  <Quantity>
10mM  * 50uL

>  <Pathway>
Cell Cycle/DNA Damage; Epigenetics

>  <Synonyms>


>  <Formula>
C17H18F2N2O

>  <Research_Area>
Cancer

>  <Clinical_Information>
No Development Reported

>  <SUPPLIER>
MedChemExpress

$$$$
Untitled Document
  ChemDraw05101917262D

 35 39  0  0  0  0  0  0  0  0999 V2000
   -2.1448    1.6804    0.0000 C   0  0  0  0  0  0  0  0  0  0  0  0
   -2.5573    0.9660    0.0000 N   0  0  0  0  0  0  0  0  0  0  0  0
   -3.3823    0.9660    0.0000 C   0  0  0  0  0  0  0  0  0  0  0  0
   -3.7948    1.6804    0.0000 O   0  0  0  0  0  0  0  0  0  0  0  0
   -2.0429    0.3210    0.0000 C   0  0  0  0  0  0  0  0  0  0  0  0
   -1.2546    0.5641    0.0000 C   0  0  0  0  0  0  0  0  0  0  0  0
   -0.6498    0.0030    0.0000 N   0  0  0  0  0  0  0  0  0  0  0  0
   -0.8334   -0.8013    0.0000 C   0  0  0  0  0  0  0  0  0  0  0  0
   -1.6217   -1.0445    0.0000 N   0  0  0  0  0  0  0  0  0  0  0  0
   -2.2265   -0.4834    0.0000 C   0  0  0  0  0  0  0  0  0  0  0  0
   -2.9698   -0.8413    0.0000 N   0  0  0  0  0  0  0  0  0  0  0  0
   -3.7131   -0.4834    0.0000 C   0  0  0  0  0  0  0  0  0  0  0  0
   -3.8967    0.3210    0.0000 C   0  0  0  0  0  0  0  0  0  0  0  0
   -4.6850    0.5641    0.0000 C   0  0  0  0  0  0  0  0  0  0  0  0
   -5.2898    0.0030    0.0000 C   0  0  0  0  0  0  0  0  0  0  0  0
   -5.1062   -0.8013    0.0000 C   0  0  0  0  0  0  0  0  0  0  0  0
   -4.3179   -1.0445    0.0000 C   0  0  0  0  0  0  0  0  0  0  0  0
   -2.9698   -1.6663    0.0000 C   0  0  0  0  0  0  0  0  0  0  0  0
   -0.2286   -1.3625    0.0000 N   0  0  0  0  0  0  0  0  0  0  0  0
    0.5597   -1.1193    0.0000 C   0  0  0  0  0  0  0  0  0  0  0  0
    0.7433   -0.3150    0.0000 C   0  0  0  0  0  0  0  0  0  0  0  0
    1.5316   -0.0718    0.0000 C   0  0  0  0  0  0  0  0  0  0  0  0
    2.1364   -0.6330    0.0000 C   0  0  0  0  0  0  0  0  0  0  0  0
    1.9528   -1.4373    0.0000 C   0  0  0  0  0  0  0  0  0  0  0  0
    1.1645   -1.6804    0.0000 C   0  0  0  0  0  0  0  0  0  0  0  0
    2.9248   -0.3898    0.0000 N   0  0  0  0  0  0  0  0  0  0  0  0
    3.1083    0.4145    0.0000 C   0  0  0  0  0  0  0  0  0  0  0  0
    3.8967    0.6577    0.0000 C   0  0  0  0  0  0  0  0  0  0  0  0
    4.5015    0.0966    0.0000 C   0  0  0  0  0  0  0  0  0  0  0  0
    4.3179   -0.7077    0.0000 C   0  0  0  0  0  0  0  0  0  0  0  0
    3.5295   -0.9509    0.0000 C   0  0  0  0  0  0  0  0  0  0  0  0
    5.2898    0.3397    0.0000 O   0  0  0  0  0  0  0  0  0  0  0  0
    0.1385    0.2462    0.0000 O   0  0  0  0  0  0  0  0  0  0  0  0
    0.3221    1.0505    0.0000 C   0  0  0  0  0  0  0  0  0  0  0  0
   -0.2613    1.6338    0.0000 C   0  0  0  0  0  0  0  0  0  0  0  0
  1  2  1  0      
  2  3  1  0      
  3  4  2  0      
  2  5  1  0      
  5  6  2  0      
  6  7  1  0      
  7  8  2  0      
  8  9  1  0      
  9 10  2  0      
  5 10  1  0      
 10 11  1  0      
 11 12  1  0      
 12 13  2  0      
  3 13  1  0      
 13 14  1  0      
 14 15  2  0      
 15 16  1  0      
 16 17  2  0      
 12 17  1  0      
 11 18  1  0      
  8 19  1  0      
 19 20  1  0      
 20 21  2  0      
 21 22  1  0      
 22 23  2  0      
 23 24  1  0      
 24 25  2  0      
 20 25  1  0      
 23 26  1  0      
 26 27  1  0      
 27 28  1  0      
 28 29  1  0      
 29 30  1  0      
 30 31  1  0      
 26 31  1  0      
 29 32  1  0      
 21 33  1  0      
 33 34  1  0      
 34 35  1  0      
M  END

>  <RackCode>
HYCPK72336

>  <Cat. No.>
HY-14443

>  <Product Name>
XMD8-92

>  <ROW>
H

>  <COLUMN>
13

>  <CAS No.>
1234480-50-2

>  <MWt>
474.55

>  <Target>
Epigenetic Reader Domain; ERK

>  <Saltdate>
Free Base

>  <Smiles>
CN(C1=O)C2=CN=C(N=C2N(C3=C1C=CC=C3)C)NC4=C(C=C(C=C4)N5CCC(CC5)O)OCC

>  <Solvent>
DMSO Solution

>  <Batch No.>
03972

>  <Quantity>
10mM  * 50uL

>  <Pathway>
Epigenetics; MAPK/ERK Pathway; Stem Cell/Wnt

>  <Synonyms>


>  <Formula>
C26H30N6O3

>  <Research_Area>
Cancer

>  <Clinical_Information>
No Development Reported

>  <SUPPLIER>
MedChemExpress

$$$$
Untitled Document
  ChemDraw05062012572D

 17 18  0  0  0  0  0  0  0  0999 V2000
   -1.7862   -1.0313    0.0000 C   0  0  0  0  0  0  0  0  0  0  0  0
   -2.5006   -0.6187    0.0000 C   0  0  0  0  0  0  0  0  0  0  0  0
   -2.5006    0.2062    0.0000 C   0  0  0  0  0  0  0  0  0  0  0  0
   -1.7862    0.6187    0.0000 C   0  0  0  0  0  0  0  0  0  0  0  0
   -1.0717    0.2062    0.0000 C   0  0  0  0  0  0  0  0  0  0  0  0
   -1.0717   -0.6187    0.0000 C   0  0  0  0  0  0  0  0  0  0  0  0
   -1.7862   -1.8563    0.0000 O   0  0  0  0  0  0  0  0  0  0  0  0
   -0.3572    0.6187    0.0000 C   0  0  0  0  0  0  0  0  0  0  0  0
    0.3572    0.2062    0.0000 C   0  0  0  0  0  0  0  0  0  0  0  0
    1.0717    0.6187    0.0000 C   0  0  0  0  0  0  0  0  0  0  0  0
    1.0717    1.4437    0.0000 C   0  0  0  0  0  0  0  0  0  0  0  0
    1.7862    1.8563    0.0000 C   0  0  0  0  0  0  0  0  0  0  0  0
    2.5006    1.4437    0.0000 C   0  0  0  0  0  0  0  0  0  0  0  0
    2.5006    0.6187    0.0000 C   0  0  0  0  0  0  0  0  0  0  0  0
    1.7862    0.2062    0.0000 C   0  0  0  0  0  0  0  0  0  0  0  0
    3.2151    1.8563    0.0000 O   0  0  0  0  0  0  0  0  0  0  0  0
   -3.2151    0.6187    0.0000 F   0  0  0  0  0  0  0  0  0  0  0  0
  1  2  1  0      
  2  3  2  0      
  3  4  1  0      
  4  5  2  0      
  5  6  1  0      
  1  6  2  0      
  1  7  1  0      
  8  9  2  0      
 10 11  1  0      
 11 12  2  0      
 12 13  1  0      
 13 14  2  0      
 14 15  1  0      
 10 15  2  0      
 13 16  1  0      
  9 10  1  0      
  5  8  1  0      
  3 17  1  0      
M  END

>  <RackCode>
HYCPK72336

>  <Cat. No.>
HY-136203

>  <Product Name>
Resveratrol analog 1

>  <ROW>
I

>  <COLUMN>
13

>  <CAS No.>
861446-16-4

>  <MWt>
230.23

>  <Target>
Autophagy; IKK; Mitophagy; Sirtuin

>  <Saltdate>


>  <Smiles>
OC1=CC(/C=C/C2=CC=C(O)C=C2)=CC(F)=C1

>  <Solvent>
DMSO Solution

>  <Batch No.>
81546

>  <Quantity>
10mM  * 50uL

>  <Pathway>
Autophagy; Cell Cycle/DNA Damage; Epigenetics; NF-¦ÊB

>  <Synonyms>


>  <Formula>
C14H11FO2

>  <Research_Area>
Cancer; Inflammation/Immunology

>  <Clinical_Information>
No Development Reported

>  <SUPPLIER>
MedChemExpress

$$$$
Untitled Document
  ChemDraw03062412482D

 12 11  0  0  0  0  0  0  0  0999 V2000
    1.4289    0.2062    0.0000 C   0  0  0  0  0  0  0  0  0  0  0  0
   -0.0000    0.2062    0.0000 N   0  0  0  0  0  0  0  0  0  0  0  0
    0.7145   -0.2062    0.0000 C   0  0  0  0  0  0  0  0  0  0  0  0
    1.4289    1.0313    0.0000 O   0  0  0  0  0  0  0  0  0  0  0  0
    2.1435   -0.2062    0.0000 O   0  0  0  0  0  0  0  0  0  0  0  0
   -0.7145   -0.2062    0.0000 C   0  0  0  0  0  0  0  0  0  0  0  0
   -0.7145   -1.0313    0.0000 O   0  0  0  0  0  0  0  0  0  0  0  0
   -1.4289    0.2062    0.0000 C   0  0  0  0  0  0  0  0  0  0  0  0
   -1.4289    1.0313    0.0000 O   0  0  0  0  0  0  0  0  0  0  0  0
   -2.1435   -0.2062    0.0000 O   0  0  0  0  0  0  0  0  0  0  0  0
   -2.8580    0.2062    0.0000 C   0  0  0  0  0  0  0  0  0  0  0  0
    2.8580    0.2062    0.0000 C   0  0  0  0  0  0  0  0  0  0  0  0
  2  3  1  0      
  1  3  1  0      
  1  4  2  0      
  1  5  1  0      
  6  7  2  0      
  6  8  1  0      
  8  9  2  0      
 10 11  1  0      
  8 10  1  0      
  2  6  1  0      
  5 12  1  0      
M  END

>  <RackCode>
HYCPK72336

>  <Cat. No.>
HY-15893

>  <Product Name>
DMOG

>  <ROW>
J

>  <COLUMN>
13

>  <CAS No.>
89464-63-1

>  <MWt>
175.14

>  <Target>
Autophagy; HIF/HIF Prolyl-Hydroxylase

>  <Saltdate>
Free Base

>  <Smiles>
O=C(OC)CNC(C(OC)=O)=O

>  <Solvent>
DMSO Solution

>  <Batch No.>
26917

>  <Quantity>
10mM  * 50uL

>  <Pathway>
Autophagy; Metabolic Enzyme/Protease

>  <Synonyms>
Dimethyloxallyl Glycine

>  <Formula>
C6H9NO5

>  <Research_Area>
Cancer

>  <Clinical_Information>
No Development Reported

>  <SUPPLIER>
MedChemExpress

$$$$
Untitled Document
  ChemDraw02091709382D

 20 22  0  0  0  0  0  0  0  0999 V2000
   -0.3572   -0.2062    0.0000 C   0  0  0  0  0  0  0  0  0  0  0  0
   -0.3572   -1.0313    0.0000 C   0  0  0  0  0  0  0  0  0  0  0  0
   -1.0717   -1.4438    0.0000 C   0  0  0  0  0  0  0  0  0  0  0  0
   -1.7858   -1.0313    0.0000 C   0  0  0  0  0  0  0  0  0  0  0  0
   -1.7858   -0.2062    0.0000 C   0  0  0  0  0  0  0  0  0  0  0  0
   -1.0717    0.2063    0.0000 O   0  0  0  0  0  0  0  0  0  0  0  0
   -2.5002    0.2063    0.0000 C   0  0  0  0  0  0  0  0  0  0  0  0
   -3.2147   -0.2062    0.0000 C   0  0  0  0  0  0  0  0  0  0  0  0
   -3.2147   -1.0313    0.0000 C   0  0  0  0  0  0  0  0  0  0  0  0
   -2.5002   -1.4438    0.0000 C   0  0  0  0  0  0  0  0  0  0  0  0
   -1.0717   -2.2684    0.0000 O   0  0  0  0  0  0  0  0  0  0  0  0
    0.3572    0.2063    0.0000 C   0  0  0  0  0  0  0  0  0  0  0  0
    0.3572    1.0313    0.0000 C   0  0  0  0  0  0  0  0  0  0  0  0
    1.0717    1.4438    0.0000 C   0  0  0  0  0  0  0  0  0  0  0  0
    1.7858    1.0313    0.0000 C   0  0  0  0  0  0  0  0  0  0  0  0
    1.7858    0.2062    0.0000 C   0  0  0  0  0  0  0  0  0  0  0  0
    1.0717   -0.2062    0.0000 C   0  0  0  0  0  0  0  0  0  0  0  0
    2.5002    1.4438    0.0000 C   0  0  0  0  0  0  0  0  0  0  0  0
    2.5002    2.2684    0.0000 C   0  0  0  0  0  0  0  0  0  0  0  0
    3.2147    1.0313    0.0000 C   0  0  0  0  0  0  0  0  0  0  0  0
  1  2  2  0      
  2  3  1  0      
  3  4  1  0      
  4  5  1  0      
  5  6  1  0      
  1  6  1  0      
  7  8  1  0      
  8  9  2  0      
  9 10  1  0      
  4 10  2  0      
  5  7  2  0      
  3 11  2  0      
 12 13  1  0      
 13 14  2  0      
 14 15  1  0      
 15 16  2  0      
 16 17  1  0      
 12 17  2  0      
 18 19  1  0      
 18 20  1  0      
 15 18  1  0      
  1 12  1  0      
M  END

>  <RackCode>
HYCPK72336

>  <Cat. No.>
HY-19351

>  <Product Name>
MN-64

>  <ROW>
K

>  <COLUMN>
13

>  <CAS No.>
92831-11-3

>  <MWt>
264.32

>  <Target>
PARP

>  <Saltdate>
Free Base

>  <Smiles>
O=C1C=C(C2=CC=C(C(C)C)C=C2)OC3=CC=CC=C13

>  <Solvent>
DMSO Solution

>  <Batch No.>
18799

>  <Quantity>
10mM  * 50uL

>  <Pathway>
Cell Cycle/DNA Damage; Epigenetics

>  <Synonyms>


>  <Formula>
C18H16O2

>  <Research_Area>
Cancer

>  <Clinical_Information>
No Development Reported

>  <SUPPLIER>
MedChemExpress

$$$$
Untitled Document
  ChemDraw06301615522D

 28 31  0  0  0  0  0  0  0  0999 V2000
   -3.0671    0.0000    0.0000 C   0  0  0  0  0  0  0  0  0  0  0  0
   -2.3527    0.4125    0.0000 C   0  0  0  0  0  0  0  0  0  0  0  0
   -1.6382    0.0000    0.0000 C   0  0  0  0  0  0  0  0  0  0  0  0
   -1.6382   -0.8250    0.0000 C   0  0  0  0  0  0  0  0  0  0  0  0
   -2.3527   -1.2375    0.0000 C   0  0  0  0  0  0  0  0  0  0  0  0
   -3.0671   -0.8250    0.0000 N   0  0  0  0  0  0  0  0  0  0  0  0
   -0.9237    0.4125    0.0000 C   0  0  0  0  0  0  0  0  0  0  0  0
   -0.9237    1.2375    0.0000 O   0  0  0  0  0  0  0  0  0  0  0  0
   -0.2093    0.0000    0.0000 N   0  0  0  0  0  0  0  0  0  0  0  0
    0.5052    0.4125    0.0000 C   0  0  0  0  0  0  0  0  0  0  0  0
    1.2197    0.0000    0.0000 C   0  0  0  0  0  0  0  0  0  0  0  0
    1.9341    0.4125    0.0000 C   0  0  0  0  0  0  0  0  0  0  0  0
    1.2197   -0.8250    0.0000 O   0  0  0  0  0  0  0  0  0  0  0  0
    3.3631    0.4125    0.0000 C   0  0  0  0  0  0  0  0  0  0  0  0
    2.6486    0.0000    0.0000 N   0  0  0  0  0  0  0  0  0  0  0  0
    2.6486   -0.8250    0.0000 C   0  0  0  0  0  0  0  0  0  0  0  0
    3.3631   -1.2375    0.0000 C   0  0  0  0  0  0  0  0  0  0  0  0
    4.0776   -0.8250    0.0000 C   0  0  0  0  0  0  0  0  0  0  0  0
    4.7920   -1.2375    0.0000 C   0  0  0  0  0  0  0  0  0  0  0  0
    5.5065   -0.8250    0.0000 C   0  0  0  0  0  0  0  0  0  0  0  0
    5.5065    0.0000    0.0000 C   0  0  0  0  0  0  0  0  0  0  0  0
    4.7920    0.4125    0.0000 C   0  0  0  0  0  0  0  0  0  0  0  0
    4.0776    0.0000    0.0000 C   0  0  0  0  0  0  0  0  0  0  0  0
   -3.7816    0.4125    0.0000 N   0  0  0  0  0  0  0  0  0  0  0  0
   -4.4961    0.0000    0.0000 C   0  0  0  0  0  0  0  0  0  0  0  0
   -4.7096   -0.7969    0.0000 C   0  0  0  0  0  0  0  0  0  0  0  0
   -5.5065   -0.5834    0.0000 C   0  0  0  0  0  0  0  0  0  0  0  0
   -5.2930    0.2135    0.0000 C   0  0  0  0  0  0  0  0  0  0  0  0
  1  2  1  0      
  2  3  2  0      
  3  4  1  0      
  4  5  2  0      
  5  6  1  0      
  1  6  2  0      
  7  8  2  0      
  7  9  1  0      
  3  7  1  0      
 10 11  1  0      
 11 12  1  0      
 11 13  1  1      
 14 15  1  0      
 15 16  1  0      
 16 17  1  0      
 17 18  1  0      
 18 19  1  0      
 19 20  2  0      
 20 21  1  0      
 21 22  2  0      
 22 23  1  0      
 14 23  1  0      
 18 23  2  0      
 12 15  1  0      
  9 10  1  0      
 25 26  1  0      
 26 27  1  0      
 27 28  1  0      
 25 28  1  0      
 24 25  1  0      
  1 24  1  0      
M  END

>  <RackCode>
HYCPK72336

>  <Cat. No.>
HY-100235

>  <Product Name>
GSK591

>  <ROW>
L

>  <COLUMN>
13

>  <CAS No.>
1616391-87-7

>  <MWt>
380.48

>  <Target>
Histone Methyltransferase

>  <Saltdate>
Free Base

>  <Smiles>
O=C(C1=CC(NC2CCC2)=NC=C1)NC[C@H](O)CN3CC4=C(C=CC=C4)CC3

>  <Solvent>
DMSO Solution

>  <Batch No.>
230780

>  <Quantity>
10mM  * 50uL

>  <Pathway>
Epigenetics

>  <Synonyms>
EPZ015866; GSK3203591

>  <Formula>
C22H28N4O2

>  <Research_Area>
Cancer

>  <Clinical_Information>
No Development Reported

>  <SUPPLIER>
MedChemExpress

$$$$
Untitled Document
  ChemDraw04171714392D

 26 29  0  0  0  0  0  0  0  0999 V2000
   -2.7641    0.3182    0.0000 C   0  0  0  0  0  0  0  0  0  0  0  0
   -2.9356   -0.4888    0.0000 C   0  0  0  0  0  0  0  0  0  0  0  0
   -2.3226   -1.0408    0.0000 C   0  0  0  0  0  0  0  0  0  0  0  0
   -1.5379   -0.7859    0.0000 C   0  0  0  0  0  0  0  0  0  0  0  0
   -1.3664    0.0211    0.0000 C   0  0  0  0  0  0  0  0  0  0  0  0
   -1.9794    0.5731    0.0000 C   0  0  0  0  0  0  0  0  0  0  0  0
   -3.7203   -0.7438    0.0000 S   0  0  0  0  0  0  0  0  0  0  0  0
   -0.5817    0.2761    0.0000 C   0  0  0  0  0  0  0  0  0  0  0  0
    0.0314   -0.2761    0.0000 C   0  0  0  0  0  0  0  0  0  0  0  0
    0.8160   -0.0211    0.0000 N   0  0  0  0  0  0  0  0  0  0  0  0
    0.9875    0.7859    0.0000 C   0  0  0  0  0  0  0  0  0  0  0  0
    0.3745    1.3380    0.0000 N   0  0  0  0  0  0  0  0  0  0  0  0
   -0.4101    1.0830    0.0000 C   0  0  0  0  0  0  0  0  0  0  0  0
    0.0314   -1.1010    0.0000 N   0  0  0  0  0  0  0  0  0  0  0  0
    0.8160   -1.3559    0.0000 N   0  0  0  0  0  0  0  0  0  0  0  0
    1.3009   -0.6885    0.0000 C   0  0  0  0  0  0  0  0  0  0  0  0
    1.7722    1.0408    0.0000 N   0  0  0  0  0  0  0  0  0  0  0  0
    2.3854    0.4888    0.0000 C   0  0  0  0  0  0  0  0  0  0  0  0
    3.1701    0.7438    0.0000 C   0  0  0  0  0  0  0  0  0  0  0  0
    3.8375    0.2588    0.0000 C   0  0  0  0  0  0  0  0  0  0  0  0
    4.5049    0.7438    0.0000 C   0  0  0  0  0  0  0  0  0  0  0  0
    4.2500    1.5284    0.0000 C   0  0  0  0  0  0  0  0  0  0  0  0
    3.4251    1.5284    0.0000 O   0  0  0  0  0  0  0  0  0  0  0  0
   -3.9753    0.0408    0.0000 O   0  0  0  0  0  0  0  0  0  0  0  0
   -3.4654   -1.5284    0.0000 O   0  0  0  0  0  0  0  0  0  0  0  0
   -4.5049   -0.9987    0.0000 C   0  0  0  0  0  0  0  0  0  0  0  0
  1  2  2  0      
  2  3  1  0      
  3  4  2  0      
  4  5  1  0      
  5  6  2  0      
  6  1  1  0      
  2  7  1  0      
  5  8  1  0      
  8  9  1  0      
  9 10  1  0      
 10 11  1  0      
 11 12  2  0      
 12 13  1  0      
 13  8  2  0      
  9 14  2  0      
 14 15  1  0      
 15 16  2  0      
 16 10  1  0      
 11 17  1  0      
 17 18  1  0      
 18 19  1  0      
 19 20  2  0      
 20 21  1  0      
 21 22  2  0      
 22 23  1  0      
 23 19  1  0      
  7 24  2  0      
  7 25  2  0      
  7 26  1  0      
M  END

>  <RackCode>
HYCPK72336

>  <Cat. No.>
HY-101117

>  <Product Name>
EED226

>  <ROW>
M

>  <COLUMN>
13

>  <CAS No.>
2083627-02-3

>  <MWt>
369.40

>  <Target>
Histone Methyltransferase

>  <Saltdate>
Free Base

>  <Smiles>
O=S(C1=CC=C(C2=CN=C(NCC3=CC=CO3)N4C2=NN=C4)C=C1)(C)=O

>  <Solvent>
DMSO Solution

>  <Batch No.>
65601

>  <Quantity>
10mM  * 50uL

>  <Pathway>
Epigenetics

>  <Synonyms>


>  <Formula>
C17H15N5O3S

>  <Research_Area>
Cancer

>  <Clinical_Information>
No Development Reported

>  <SUPPLIER>
MedChemExpress

$$$$
Untitled Document
  ChemDraw02021813592D

 34 39  0  0  0  0  0  0  0  0999 V2000
   -5.2193    2.4420    0.0000 C   0  0  0  0  0  0  0  0  0  0  0  0
   -5.2193    1.6170    0.0000 C   0  0  0  0  0  0  0  0  0  0  0  0
   -4.5048    1.2045    0.0000 C   0  0  0  0  0  0  0  0  0  0  0  0
   -3.7903    1.6170    0.0000 C   0  0  0  0  0  0  0  0  0  0  0  0
   -3.7903    2.4420    0.0000 C   0  0  0  0  0  0  0  0  0  0  0  0
   -4.5048    2.8545    0.0000 C   0  0  0  0  0  0  0  0  0  0  0  0
   -3.0783    1.2059    0.0000 C   0  0  0  0  0  0  0  0  0  0  0  0
   -3.0783    0.3809    0.0000 C   0  0  0  0  0  0  0  0  0  0  0  0
   -2.3639   -0.0316    0.0000 C   0  0  0  0  0  0  0  0  0  0  0  0
   -1.6494    0.3809    0.0000 C   0  0  0  0  0  0  0  0  0  0  0  0
   -1.6494    1.2059    0.0000 C   0  0  0  0  0  0  0  0  0  0  0  0
   -2.3639    1.6184    0.0000 C   0  0  0  0  0  0  0  0  0  0  0  0
   -0.9374   -0.0301    0.0000 C   0  0  0  0  0  0  0  0  0  0  0  0
   -0.9374   -0.8551    0.0000 C   0  0  0  0  0  0  0  0  0  0  0  0
   -0.2229   -1.2676    0.0000 C   0  0  0  0  0  0  0  0  0  0  0  0
    0.4915   -0.8551    0.0000 C   0  0  0  0  0  0  0  0  0  0  0  0
    0.4915   -0.0301    0.0000 C   0  0  0  0  0  0  0  0  0  0  0  0
   -0.2229    0.3824    0.0000 N   0  0  0  0  0  0  0  0  0  0  0  0
    1.2762   -1.1101    0.0000 N   0  0  0  0  0  0  0  0  0  0  0  0
    1.7611   -0.4426    0.0000 C   0  0  0  0  0  0  0  0  0  0  0  0
    1.2762    0.2248    0.0000 N   0  0  0  0  0  0  0  0  0  0  0  0
    2.5832   -0.4426    0.0000 O   0  0  0  0  0  0  0  0  0  0  0  0
    2.9957   -1.1571    0.0000 C   0  0  0  0  0  0  0  0  0  0  0  0
    2.6602   -1.9108    0.0000 C   0  0  0  0  0  0  0  0  0  0  0  0
    3.2733   -2.4628    0.0000 O   0  0  0  0  0  0  0  0  0  0  0  0
    3.9877   -2.0503    0.0000 C   0  0  0  0  0  0  0  0  0  0  0  0
    3.8162   -1.2434    0.0000 C   0  0  0  0  0  0  0  0  0  0  0  0
    4.8082   -2.1366    0.0000 C   0  0  0  0  0  0  0  0  0  0  0  0
    5.1438   -1.3829    0.0000 C   0  0  0  0  0  0  0  0  0  0  0  0
    4.5307   -0.8309    0.0000 O   0  0  0  0  0  0  0  0  0  0  0  0
    5.2193   -2.8485    0.0000 O   0  0  0  0  0  0  0  0  0  0  0  0
   -1.6494   -1.2662    0.0000 Cl  0  0  0  0  0  0  0  0  0  0  0  0
    4.1587   -2.8545    0.0000 H   0  0  0  0  0  0  0  0  0  0  0  0
    3.6453   -0.4392    0.0000 H   0  0  0  0  0  0  0  0  0  0  0  0
  1  2  2  0      
  2  3  1  0      
  3  4  2  0      
  4  5  1  0      
  5  6  2  0      
  6  1  1  0      
  4  7  1  0      
  7  8  2  0      
  8  9  1  0      
  9 10  2  0      
 10 11  1  0      
 11 12  2  0      
 12  7  1  0      
 10 13  1  0      
 13 14  2  0      
 14 15  1  0      
 15 16  2  0      
 16 17  1  0      
 17 18  2  0      
 18 13  1  0      
 16 19  1  0      
 19 20  1  0      
 20 21  2  0      
 21 17  1  0      
 20 22  1  0      
 23 22  1  1      
 23 24  1  0      
 24 25  1  0      
 25 26  1  0      
 26 27  1  0      
 27 23  1  0      
 26 28  1  0      
 28 29  1  0      
 29 30  1  0      
 30 27  1  0      
 28 31  1  1      
 14 32  1  0      
 26 33  1  6      
 27 34  1  6      
M  END

>  <RackCode>
HYCPK72336

>  <Cat. No.>
HY-111363

>  <Product Name>
MK8722

>  <ROW>
N

>  <COLUMN>
13

>  <CAS No.>
1394371-71-1

>  <MWt>
449.89

>  <Target>
AMPK

>  <Saltdate>
Free Base

>  <Smiles>
O[C@H]1[C@@]([C@]2([H])OC1)([H])OC[C@H]2OC3=NC4=NC(C(C=C5)=CC=C5C6=CC=CC=C6)=C(Cl)C=C4N3

>  <Solvent>
DMSO Solution

>  <Batch No.>
102981

>  <Quantity>
10mM  * 50uL

>  <Pathway>
Epigenetics; PI3K/Akt/mTOR

>  <Synonyms>


>  <Formula>
C24H20ClN3O4

>  <Research_Area>
Metabolic Disease

>  <Clinical_Information>
No Development Reported

>  <SUPPLIER>
MedChemExpress

$$$$
Untitled Document
  ChemDraw12151714522D

 24 26  0  0  0  0  0  0  0  0999 V2000
    2.5006   -0.1510    0.0000 C   0  0  0  0  0  0  0  0  0  0  0  0
    3.2151   -0.5635    0.0000 C   0  0  0  0  0  0  0  0  0  0  0  0
    3.9296   -0.1510    0.0000 C   0  0  0  0  0  0  0  0  0  0  0  0
    3.9296    0.6740    0.0000 C   0  0  0  0  0  0  0  0  0  0  0  0
    2.5006    0.6740    0.0000 O   0  0  0  0  0  0  0  0  0  0  0  0
    1.7862   -0.5635    0.0000 O   0  0  0  0  0  0  0  0  0  0  0  0
    3.2151   -1.3885    0.0000 C   0  0  0  0  0  0  0  0  0  0  0  0
   -1.7862    0.6740    0.0000 C   0  0  0  0  0  0  0  0  0  0  0  0
   -1.7862   -0.1510    0.0000 C   0  0  0  0  0  0  0  0  0  0  0  0
   -2.5006   -0.5635    0.0000 C   0  0  0  0  0  0  0  0  0  0  0  0
   -3.2151   -0.1510    0.0000 C   0  0  0  0  0  0  0  0  0  0  0  0
   -3.2151    0.6740    0.0000 C   0  0  0  0  0  0  0  0  0  0  0  0
   -2.5006    1.0865    0.0000 O   0  0  0  0  0  0  0  0  0  0  0  0
   -0.3572    0.6740    0.0000 C   0  0  0  0  0  0  0  0  0  0  0  0
   -0.3572   -0.1510    0.0000 C   0  0  0  0  0  0  0  0  0  0  0  0
    0.3572   -0.5635    0.0000 C   0  0  0  0  0  0  0  0  0  0  0  0
    1.0717   -0.1510    0.0000 C   0  0  0  0  0  0  0  0  0  0  0  0
    1.0717    0.6740    0.0000 C   0  0  0  0  0  0  0  0  0  0  0  0
    0.3572    1.0865    0.0000 O   0  0  0  0  0  0  0  0  0  0  0  0
   -1.0717   -0.5635    0.0000 C   0  0  0  0  0  0  0  0  0  0  0  0
   -1.0717    1.0865    0.0000 C   0  0  0  0  0  0  0  0  0  0  0  0
   -3.9296    1.0865    0.0000 O   0  0  0  0  0  0  0  0  0  0  0  0
    1.4842    1.3885    0.0000 C   0  0  0  0  0  0  0  0  0  0  0  0
    1.8967    0.6740    0.0000 C   0  0  0  0  0  0  0  0  0  0  0  0
  1  2  1  0      
  2  3  2  0      
  3  4  1  0      
  1  5  2  0      
  1  6  1  0      
  2  7  1  0      
  8  9  1  0      
  9 10  1  0      
 10 11  2  0      
 11 12  1  0      
 12 13  1  0      
  8 13  1  0      
 14 15  2  0      
 15 16  1  0      
 16 17  1  0      
 17 18  1  0      
 18 19  1  0      
 14 19  1  0      
  8 21  2  0      
  9 20  2  0      
 14 21  1  0      
 15 20  1  0      
 12 22  2  0      
 18 23  1  0      
 18 24  1  0      
 17  6  1  1      
M  END

>  <RackCode>
HYCPK72336

>  <Cat. No.>
HY-N4322

>  <Product Name>
Decursinol angelate

>  <ROW>
O

>  <COLUMN>
13

>  <CAS No.>
130848-06-5

>  <MWt>
328.36

>  <Target>
PKC

>  <Saltdate>


>  <Smiles>
C/C=C(C)\C(O[C@H]1CC(C=C(C=CC(O2)=O)C2=C3)=C3OC1(C)C)=O

>  <Solvent>
DMSO Solution

>  <Batch No.>
109366

>  <Quantity>
10mM  * 50uL

>  <Pathway>
Epigenetics; TGF-beta/Smad

>  <Synonyms>


>  <Formula>
C19H20O5

>  <Research_Area>
Cancer; Inflammation/Immunology

>  <Clinical_Information>
No Development Reported

>  <SUPPLIER>
MedChemExpress

$$$$
Untitled Document
  ChemDraw07121615432D

 34 39  0  0  0  0  0  0  0  0999 V2000
    0.3572    3.1900    0.0000 O   0  0  0  0  0  0  0  0  0  0  0  0
    0.3572    2.3650    0.0000 C   0  0  0  0  0  0  0  0  0  0  0  0
   -0.3572    1.9525    0.0000 C   0  0  0  0  0  0  0  0  0  0  0  0
   -1.0717    2.3650    0.0000 N   0  0  0  0  0  0  0  0  0  0  0  0
   -1.7862    1.9525    0.0000 C   0  0  0  0  0  0  0  0  0  0  0  0
   -2.5006    2.3650    0.0000 C   0  0  0  0  0  0  0  0  0  0  0  0
   -3.2151    1.9525    0.0000 C   0  0  0  0  0  0  0  0  0  0  0  0
   -3.2151    1.1275    0.0000 C   0  0  0  0  0  0  0  0  0  0  0  0
   -2.5006    0.7150    0.0000 C   0  0  0  0  0  0  0  0  0  0  0  0
   -1.7862    1.1275    0.0000 C   0  0  0  0  0  0  0  0  0  0  0  0
   -1.0717    0.7150    0.0000 N   0  0  0  0  0  0  0  0  0  0  0  0
   -0.3572    1.1275    0.0000 C   0  0  0  0  0  0  0  0  0  0  0  0
    1.0717    1.9525    0.0000 N   0  0  0  0  0  0  0  0  0  0  0  0
    1.7862    2.3650    0.0000 C   0  0  0  0  0  0  0  0  0  0  0  0
    2.5006    1.9525    0.0000 C   0  0  0  0  0  0  0  0  0  0  0  0
    2.5006    1.1275    0.0000 C   0  0  0  0  0  0  0  0  0  0  0  0
    1.8332    0.6426    0.0000 C   0  0  0  0  0  0  0  0  0  0  0  0
    2.0881   -0.1420    0.0000 N   0  0  0  0  0  0  0  0  0  0  0  0
    2.9131   -0.1420    0.0000 C   0  0  0  0  0  0  0  0  0  0  0  0
    3.1681   -0.9267    0.0000 S   0  0  0  0  0  0  0  0  0  0  0  0
    2.5006   -1.4116    0.0000 C   0  0  0  0  0  0  0  0  0  0  0  0
    1.8332   -0.9267    0.0000 C   0  0  0  0  0  0  0  0  0  0  0  0
    1.0486   -1.1816    0.0000 C   0  0  0  0  0  0  0  0  0  0  0  0
    0.8771   -1.9886    0.0000 N   0  0  0  0  0  0  0  0  0  0  0  0
    0.0924   -2.2435    0.0000 C   0  0  0  0  0  0  0  0  0  0  0  0
   -0.0791   -3.0505    0.0000 C   0  0  0  0  0  0  0  0  0  0  0  0
    0.5340   -3.6025    0.0000 N   0  0  0  0  0  0  0  0  0  0  0  0
    1.3186   -3.3476    0.0000 C   0  0  0  0  0  0  0  0  0  0  0  0
    1.4902   -2.5406    0.0000 C   0  0  0  0  0  0  0  0  0  0  0  0
    3.1681    0.6426    0.0000 N   0  0  0  0  0  0  0  0  0  0  0  0
    3.2151    2.3650    0.0000 C   0  0  0  0  0  0  0  0  0  0  0  0
    3.2151    3.1900    0.0000 C   0  0  0  0  0  0  0  0  0  0  0  0
    2.5006    3.6025    0.0000 C   0  0  0  0  0  0  0  0  0  0  0  0
    1.7862    3.1900    0.0000 C   0  0  0  0  0  0  0  0  0  0  0  0
  1  2  2  0      
  2  3  1  0      
  3  4  2  0      
  4  5  1  0      
  5  6  1  0      
  6  7  2  0      
  7  8  1  0      
  8  9  2  0      
  5 10  2  0      
  9 10  1  0      
 10 11  1  0      
 11 12  2  0      
  3 12  1  0      
  2 13  1  0      
 13 14  1  0      
 14 15  2  0      
 15 16  1  0      
 16 17  2  0      
 17 18  1  0      
 18 19  1  0      
 19 20  1  0      
 20 21  1  0      
 21 22  2  0      
 18 22  1  0      
 22 23  1  0      
 23 24  1  0      
 24 25  1  0      
 25 26  1  0      
 26 27  1  0      
 27 28  1  0      
 28 29  1  0      
 24 29  1  0      
 19 30  2  0      
 16 30  1  0      
 15 31  1  0      
 31 32  2  0      
 32 33  1  0      
 33 34  2  0      
 14 34  1  0      
M  END

>  <RackCode>
HYCPK72336

>  <Cat. No.>
HY-10532

>  <Product Name>
SRT 1720

>  <ROW>
P

>  <COLUMN>
13

>  <CAS No.>
925434-55-5

>  <MWt>
469.56

>  <Target>
Autophagy; Sirtuin

>  <Saltdate>
Free Base

>  <Smiles>
O=C(NC1=C(C=CC=C1)C2=CN3C(SC=C3CN4CCNCC4)=N2)C5=NC6=C(N=C5)C=CC=C6

>  <Solvent>
DMSO Solution

>  <Batch No.>
246590

>  <Quantity>
10mM  * 50uL

>  <Pathway>
Autophagy; Cell Cycle/DNA Damage; Epigenetics

>  <Synonyms>


>  <Formula>
C25H23N7OS

>  <Research_Area>
Metabolic Disease

>  <Clinical_Information>
No Development Reported

>  <SUPPLIER>
MedChemExpress

$$$$
Untitled Document
  ChemDraw07262216282D

 33 35  0  0  0  0  0  0  0  0999 V2000
    4.6440    1.8562    0.0000 O   0  0  0  0  0  0  0  0  0  0  0  0
    4.6440    1.0313    0.0000 C   0  0  0  0  0  0  0  0  0  0  0  0
    5.3583    0.6187    0.0000 N   0  0  0  0  0  0  0  0  0  0  0  0
    5.3583   -0.2062    0.0000 C   0  0  0  0  0  0  0  0  0  0  0  0
    4.6440   -0.6187    0.0000 N   0  0  0  0  0  0  0  0  0  0  0  0
    3.9295   -0.2062    0.0000 C   0  0  0  0  0  0  0  0  0  0  0  0
    3.2150   -0.6187    0.0000 C   0  0  0  0  0  0  0  0  0  0  0  0
    2.5005   -0.2062    0.0000 C   0  0  0  0  0  0  0  0  0  0  0  0
    1.7861   -0.6187    0.0000 N   0  0  0  0  0  0  0  0  0  0  0  0
    1.0717   -0.2062    0.0000 C   0  0  0  0  0  0  0  0  0  0  0  0
    0.3572   -0.6187    0.0000 C   0  0  0  0  0  0  0  0  0  0  0  0
   -0.3572   -0.2062    0.0000 C   0  0  0  0  0  0  0  0  0  0  0  0
   -1.0717   -0.6187    0.0000 N   0  0  0  0  0  0  0  0  0  0  0  0
   -1.7861   -0.2062    0.0000 C   0  0  0  0  0  0  0  0  0  0  0  0
   -2.5005   -0.6187    0.0000 C   0  0  0  0  0  0  0  0  0  0  0  0
   -3.2150   -0.2062    0.0000 C   0  0  0  0  0  0  0  0  0  0  0  0
   -3.9295   -0.6187    0.0000 C   0  0  0  0  0  0  0  0  0  0  0  0
   -4.6440   -0.2062    0.0000 N   0  0  0  0  0  0  0  0  0  0  0  0
   -5.3583   -0.6187    0.0000 C   0  0  0  0  0  0  0  0  0  0  0  0
   -6.0728   -0.2062    0.0000 C   0  0  0  0  0  0  0  0  0  0  0  0
   -6.7873   -0.6187    0.0000 C   0  0  0  0  0  0  0  0  0  0  0  0
   -7.5017   -0.2062    0.0000 N   0  0  0  0  0  0  0  0  0  0  0  0
    2.5005    0.6187    0.0000 C   0  0  0  0  0  0  0  0  0  0  0  0
    1.7861    1.0313    0.0000 F   0  0  0  0  0  0  0  0  0  0  0  0
    3.2150    1.0313    0.0000 C   0  0  0  0  0  0  0  0  0  0  0  0
    3.9295    0.6187    0.0000 C   0  0  0  0  0  0  0  0  0  0  0  0
    6.0728   -0.6187    0.0000 C   0  0  0  0  0  0  0  0  0  0  0  0
    6.7873   -0.2062    0.0000 C   0  0  0  0  0  0  0  0  0  0  0  0
    7.5017   -0.6187    0.0000 C   0  0  0  0  0  0  0  0  0  0  0  0
    7.5017   -1.4437    0.0000 C   0  0  0  0  0  0  0  0  0  0  0  0
    6.7873   -1.8562    0.0000 C   0  0  0  0  0  0  0  0  0  0  0  0
    6.0728   -1.4437    0.0000 C   0  0  0  0  0  0  0  0  0  0  0  0
    5.3583   -1.8562    0.0000 Cl  0  0  0  0  0  0  0  0  0  0  0  0
  1  2  2  0      
  2  3  1  0      
  3  4  2  0      
  4  5  1  0      
  5  6  1  0      
  6  7  2  0      
  7  8  1  0      
  8  9  1  0      
  9 10  1  0      
 10 11  1  0      
 11 12  1  0      
 12 13  1  0      
 13 14  1  0      
 14 15  1  0      
 15 16  1  0      
 16 17  1  0      
 17 18  1  0      
 18 19  1  0      
 19 20  1  0      
 20 21  1  0      
 21 22  1  0      
  8 23  2  0      
 23 24  1  0      
 23 25  1  0      
 25 26  2  0      
  2 26  1  0      
  6 26  1  0      
  4 27  1  0      
 27 28  1  0      
 28 29  2  0      
 29 30  1  0      
 30 31  2  0      
 31 32  1  0      
 27 32  2  0      
 32 33  1  0      
M  END

>  <RackCode>
HYCPK72336

>  <Cat. No.>
HY-143248

>  <Product Name>
KR-39038

>  <ROW>
A

>  <COLUMN>
14

>  <CAS No.>
2770300-35-9

>  <MWt>
475.00

>  <Target>
G Protein-coupled Receptor Kinase (GRK); HDAC

>  <Saltdate>


>  <Smiles>
O=C1N=C(C2=C(Cl)C=CC=C2)NC3=CC(NCCCNCCCCNCCCN)=C(C=C13)F

>  <Solvent>
DMSO Solution

>  <Batch No.>
205058

>  <Quantity>
10mM  * 50uL

>  <Pathway>
Cell Cycle/DNA Damage; Epigenetics; GPCR/G Protein

>  <Synonyms>


>  <Formula>
C24H32ClFN6O

>  <Research_Area>
Cardiovascular Disease

>  <Clinical_Information>
No Development Reported

>  <SUPPLIER>
MedChemExpress

$$$$
Untitled Document
  ChemDraw09261715422D

 32 36  0  0  0  0  0  0  0  0999 V2000
   -0.9213    0.9038    0.0000 O   0  0  0  0  0  0  0  0  0  0  0  0
   -0.5096    0.1919    0.0000 C   0  0  0  0  0  0  0  0  0  0  0  0
   -0.9213   -0.5280    0.0000 C   0  0  0  0  0  0  0  0  0  0  0  0
   -0.5096   -1.2359    0.0000 C   0  0  0  0  0  0  0  0  0  0  0  0
    0.3154   -1.2359    0.0000 C   0  0  0  0  0  0  0  0  0  0  0  0
    0.7287   -0.5280    0.0000 C   0  0  0  0  0  0  0  0  0  0  0  0
    0.3154    0.1919    0.0000 N   0  0  0  0  0  0  0  0  0  0  0  0
    1.0298    0.6015    0.0000 C   0  0  0  0  0  0  0  0  0  0  0  0
    1.7463    0.1919    0.0000 C   0  0  0  0  0  0  0  0  0  0  0  0
    2.4608    0.6015    0.0000 C   0  0  0  0  0  0  0  0  0  0  0  0
    2.4608    1.4309    0.0000 C   0  0  0  0  0  0  0  0  0  0  0  0
    1.7463    1.8425    0.0000 C   0  0  0  0  0  0  0  0  0  0  0  0
    1.0298    1.4309    0.0000 C   0  0  0  0  0  0  0  0  0  0  0  0
    0.3154    1.8425    0.0000 C   0  0  0  0  0  0  0  0  0  0  0  0
    3.1771    1.8425    0.0000 N   0  0  0  0  0  0  0  0  0  0  0  0
    3.8897    1.4309    0.0000 C   0  0  0  0  0  0  0  0  0  0  0  0
    3.8897    0.6015    0.0000 N   0  0  0  0  0  0  0  0  0  0  0  0
    4.4729    0.0229    0.0000 C   0  0  0  0  0  0  0  0  0  0  0  0
    4.6041    1.8425    0.0000 O   0  0  0  0  0  0  0  0  0  0  0  0
    3.1771    2.6638    0.0000 C   0  0  0  0  0  0  0  0  0  0  0  0
    1.5537   -0.5280    0.0000 O   0  0  0  0  0  0  0  0  0  0  0  0
    0.7287   -1.9559    0.0000 C   0  0  0  0  0  0  0  0  0  0  0  0
    0.3154   -2.6638    0.0000 C   0  0  0  0  0  0  0  0  0  0  0  0
   -0.5096   -2.6638    0.0000 C   0  0  0  0  0  0  0  0  0  0  0  0
   -0.9213   -1.9559    0.0000 C   0  0  0  0  0  0  0  0  0  0  0  0
   -1.7463   -1.9559    0.0000 C   0  0  0  0  0  0  0  0  0  0  0  0
   -2.1596   -1.2359    0.0000 C   0  0  0  0  0  0  0  0  0  0  0  0
   -1.7463   -0.5280    0.0000 C   0  0  0  0  0  0  0  0  0  0  0  0
   -2.4608   -2.3675    0.0000 C   0  0  0  0  0  0  0  0  0  0  0  0
   -3.1752   -1.9559    0.0000 C   0  0  0  0  0  0  0  0  0  0  0  0
   -3.8897   -2.3675    0.0000 C   0  0  0  0  0  0  0  0  0  0  0  0
   -4.6041   -1.9559    0.0000 O   0  0  0  0  0  0  0  0  0  0  0  0
  1  2  2  0      
  2  3  1  0      
  2  7  1  0      
  3  4  1  0      
  3 28  2  0      
  4  5  1  0      
  4 25  2  0      
  6  5  1  0      
  5 22  2  0      
  7  6  1  0      
  6 21  2  0      
  7  8  1  0      
  8  9  1  0      
  8 13  2  0      
  9 10  2  0      
 10 11  1  0      
 10 17  1  0      
 12 11  2  0      
 11 15  1  0      
 13 12  1  0      
 13 14  1  0      
 15 16  1  0      
 15 20  1  0      
 17 16  1  0      
 16 19  2  0      
 17 18  1  0      
 22 23  1  0      
 24 23  2  0      
 25 24  1  0      
 25 26  1  0      
 27 26  2  0      
 26 29  1  0      
 28 27  1  0      
 29 30  1  0      
 30 31  1  0      
 31 32  1  0      
M  END

>  <RackCode>
HYCPK72336

>  <Cat. No.>
HY-107424

>  <Product Name>
BAY-299

>  <ROW>
B

>  <COLUMN>
14

>  <CAS No.>
2080306-23-4

>  <MWt>
429.47

>  <Target>
Epigenetic Reader Domain

>  <Saltdate>
Free Base

>  <Smiles>
O=C(N1C2=C(C)C=C(N(C)C3=O)C(N3C)=C2)C4=CC=C(CCCO)C5=C4C(C1=O)=CC=C5

>  <Solvent>
DMSO Solution

>  <Batch No.>
31698

>  <Quantity>
10mM  * 50uL

>  <Pathway>
Epigenetics

>  <Synonyms>


>  <Formula>
C25H23N3O4

>  <Research_Area>
Cancer

>  <Clinical_Information>
No Development Reported

>  <SUPPLIER>
MedChemExpress

$$$$
Untitled Document
  ChemDraw12181909422D

 18 19  0  0  0  0  0  0  0  0999 V2000
   -2.1434   -0.2062    0.0000 C   0  0  0  0  0  0  0  0  0  0  0  0
   -1.4289   -0.6187    0.0000 C   0  0  0  0  0  0  0  0  0  0  0  0
   -1.4289   -1.4437    0.0000 C   0  0  0  0  0  0  0  0  0  0  0  0
   -2.1434   -1.8563    0.0000 C   0  0  0  0  0  0  0  0  0  0  0  0
   -2.8579   -1.4437    0.0000 C   0  0  0  0  0  0  0  0  0  0  0  0
   -2.8579   -0.6187    0.0000 C   0  0  0  0  0  0  0  0  0  0  0  0
   -2.1434    0.6187    0.0000 O   0  0  0  0  0  0  0  0  0  0  0  0
   -0.7145   -1.8563    0.0000 O   0  0  0  0  0  0  0  0  0  0  0  0
   -0.7145   -0.2062    0.0000 C   0  0  0  0  0  0  0  0  0  0  0  0
    0.0000   -0.6187    0.0000 C   0  0  0  0  0  0  0  0  0  0  0  0
    0.7145   -0.2062    0.0000 C   0  0  0  0  0  0  0  0  0  0  0  0
    0.7145    0.6187    0.0000 C   0  0  0  0  0  0  0  0  0  0  0  0
    1.4289    1.0313    0.0000 C   0  0  0  0  0  0  0  0  0  0  0  0
    2.1434    0.6187    0.0000 C   0  0  0  0  0  0  0  0  0  0  0  0
    2.1434   -0.2062    0.0000 C   0  0  0  0  0  0  0  0  0  0  0  0
    1.4289   -0.6187    0.0000 C   0  0  0  0  0  0  0  0  0  0  0  0
    2.8579   -0.6187    0.0000 O   0  0  0  0  0  0  0  0  0  0  0  0
    1.4289    1.8563    0.0000 O   0  0  0  0  0  0  0  0  0  0  0  0
  1  2  1  0      
  2  3  2  0      
  3  4  1  0      
  4  5  2  0      
  5  6  1  0      
  1  6  2  0      
  1  7  1  0      
  3  8  1  0      
  9 10  2  0      
 11 12  1  0      
 12 13  2  0      
 13 14  1  0      
 14 15  2  0      
 15 16  1  0      
 11 16  2  0      
 15 17  1  0      
 13 18  1  0      
 10 11  1  0      
  2  9  1  0      
M  END

>  <RackCode>
HYCPK72336

>  <Cat. No.>
HY-126052

>  <Product Name>
Gnetol

>  <ROW>
C

>  <COLUMN>
14

>  <CAS No.>
86361-55-9

>  <MWt>
244.24

>  <Target>
COX; HDAC; Tyrosinase

>  <Saltdate>


>  <Smiles>
OC1=CC=CC(O)=C1/C=C/C2=CC(O)=CC(O)=C2

>  <Solvent>
DMSO Solution

>  <Batch No.>
253651

>  <Quantity>
10mM  * 50uL

>  <Pathway>
Cell Cycle/DNA Damage; Epigenetics; Immunology/Inflammation; Metabolic Enzyme/Protease

>  <Synonyms>


>  <Formula>
C14H12O4

>  <Research_Area>
Cancer; Metabolic Disease

>  <Clinical_Information>
No Development Reported

>  <SUPPLIER>
MedChemExpress

$$$$
Untitled Document
  ChemDraw05101917272D

 18 20  0  0  0  0  0  0  0  0999 V2000
    2.4762    0.2062    0.0000 O   0  0  0  0  0  0  0  0  0  0  0  0
    1.6512    0.2062    0.0000 C   0  0  0  0  0  0  0  0  0  0  0  0
    1.1663   -0.4612    0.0000 C   0  0  0  0  0  0  0  0  0  0  0  0
    1.4212   -1.2458    0.0000 C   0  0  0  0  0  0  0  0  0  0  0  0
    0.3817   -0.2062    0.0000 C   0  0  0  0  0  0  0  0  0  0  0  0
   -0.3328   -0.6188    0.0000 C   0  0  0  0  0  0  0  0  0  0  0  0
   -1.0473   -0.2062    0.0000 C   0  0  0  0  0  0  0  0  0  0  0  0
   -1.0473   -1.0313    0.0000 H   0  0  0  0  0  0  0  0  0  0  0  0
    0.3817    0.6187    0.0000 C   0  0  0  0  0  0  0  0  0  0  0  0
    1.1663    0.8737    0.0000 O   0  0  0  0  0  0  0  0  0  0  0  0
   -0.3328    1.0312    0.0000 C   0  0  0  0  0  0  0  0  0  0  0  0
   -1.0473    0.6188    0.0000 C   0  0  0  0  0  0  0  0  0  0  0  0
   -1.0473    1.4438    0.0000 C   0  0  0  0  0  0  0  0  0  0  0  0
   -1.7617    1.0313    0.0000 C   0  0  0  0  0  0  0  0  0  0  0  0
   -2.4762    0.6188    0.0000 C   0  0  0  0  0  0  0  0  0  0  0  0
   -2.4762   -0.2062    0.0000 C   0  0  0  0  0  0  0  0  0  0  0  0
   -1.7617   -0.6188    0.0000 C   0  0  0  0  0  0  0  0  0  0  0  0
   -1.7617   -1.4438    0.0000 C   0  0  0  0  0  0  0  0  0  0  0  0
  1  2  2  0      
  2  3  1  0      
  3  4  1  0      
  3  5  2  0      
  5  6  1  0      
  6  7  1  0      
  7  8  1  6      
  5  9  1  0      
  9 10  1  0      
  2 10  1  0      
  9 11  2  0      
 11 12  1  0      
  7 12  1  0      
 12 13  1  1      
 12 14  1  0      
 14 15  1  0      
 15 16  1  0      
 16 17  1  0      
  7 17  1  0      
 17 18  2  0      
M  END

>  <RackCode>
HYCPK72336

>  <Cat. No.>
HY-N0201

>  <Product Name>
Atractylenolide I

>  <ROW>
D

>  <COLUMN>
14

>  <CAS No.>
73069-13-3

>  <MWt>
230.30

>  <Target>
JAK; STAT; TNF Receptor; Toll-like Receptor (TLR)

>  <Saltdate>
Free Base

>  <Smiles>
O=C1C(C)=C(C[C@@]23[H])C(O1)=C[C@@]3(C)CCCC2=C

>  <Solvent>
DMSO Solution

>  <Batch No.>
101450

>  <Quantity>
10mM  * 50uL

>  <Pathway>
Apoptosis; Epigenetics; Immunology/Inflammation; JAK/STAT Signaling; Protein Tyrosine Kinase/RTK; Stem Cell/Wnt

>  <Synonyms>


>  <Formula>
C15H18O2

>  <Research_Area>
Cancer

>  <Clinical_Information>
No Development Reported

>  <SUPPLIER>
MedChemExpress

$$$$
Untitled Document
  ChemDraw11071611172D

 23 24  0  0  0  0  0  0  0  0999 V2000
    0.3572    0.4125    0.0000 C   0  0  0  0  0  0  0  0  0  0  0  0
    0.3572    1.2376    0.0000 C   0  0  0  0  0  0  0  0  0  0  0  0
    1.0718    1.6501    0.0000 C   0  0  0  0  0  0  0  0  0  0  0  0
    1.7860    1.2376    0.0000 C   0  0  0  0  0  0  0  0  0  0  0  0
    1.7860    0.4125    0.0000 C   0  0  0  0  0  0  0  0  0  0  0  0
    1.0718    0.0000    0.0000 C   0  0  0  0  0  0  0  0  0  0  0  0
   -1.0718    0.4125    0.0000 C   0  0  0  0  0  0  0  0  0  0  0  0
   -0.3572    0.0000    0.0000 C   0  0  0  0  0  0  0  0  0  0  0  0
   -1.0718    1.2376    0.0000 O   0  0  0  0  0  0  0  0  0  0  0  0
   -1.7860    0.0000    0.0000 N   0  0  0  0  0  0  0  0  0  0  0  0
   -1.7860   -0.8251    0.0000 C   0  0  0  0  0  0  0  0  0  0  0  0
   -1.0718   -1.2376    0.0000 C   0  0  0  0  0  0  0  0  0  0  0  0
   -1.0718   -2.0624    0.0000 C   0  0  0  0  0  0  0  0  0  0  0  0
   -1.7860   -2.4749    0.0000 C   0  0  0  0  0  0  0  0  0  0  0  0
   -2.5005   -2.0624    0.0000 C   0  0  0  0  0  0  0  0  0  0  0  0
   -2.5005   -1.2376    0.0000 C   0  0  0  0  0  0  0  0  0  0  0  0
   -2.5005    0.4125    0.0000 C   0  0  0  0  0  0  0  0  0  0  0  0
   -3.2150    0.0000    0.0000 C   0  0  0  0  0  0  0  0  0  0  0  0
   -3.9296    0.4125    0.0000 O   0  0  0  0  0  0  0  0  0  0  0  0
    2.5005    1.6501    0.0000 C   0  0  0  0  0  0  0  0  0  0  0  0
    2.5005    2.4749    0.0000 O   0  0  0  0  0  0  0  0  0  0  0  0
    3.2150    1.2376    0.0000 N   0  0  0  0  0  0  0  0  0  0  0  0
    3.9296    1.6501    0.0000 O   0  0  0  0  0  0  0  0  0  0  0  0
  1  2  1  0      
  2  3  2  0      
  3  4  1  0      
  4  5  2  0      
  5  6  1  0      
  1  6  2  0      
  7  8  1  0      
  7  9  2  0      
  7 10  1  0      
  1  8  1  0      
 11 12  1  0      
 12 13  2  0      
 13 14  1  0      
 14 15  2  0      
 15 16  1  0      
 11 16  2  0      
 10 11  1  0      
 17 18  1  0      
 18 19  1  0      
 10 17  1  0      
 20 21  2  0      
 22 23  1  0      
 20 22  1  0      
  4 20  1  0      
M  END

>  <RackCode>
HYCPK72336

>  <Cat. No.>
HY-19747

>  <Product Name>
HPOB

>  <ROW>
E

>  <COLUMN>
14

>  <CAS No.>
1429651-50-2

>  <MWt>
314.34

>  <Target>
Apoptosis; HDAC

>  <Saltdate>
Free Base

>  <Smiles>
O=C(N(CCO)C1=CC=CC=C1)CC2=CC=C(C(NO)=O)C=C2

>  <Solvent>
DMSO Solution

>  <Batch No.>
22134

>  <Quantity>
10mM  * 50uL

>  <Pathway>
Apoptosis; Cell Cycle/DNA Damage; Epigenetics

>  <Synonyms>


>  <Formula>
C17H18N2O4

>  <Research_Area>
Cancer

>  <Clinical_Information>
No Development Reported

>  <SUPPLIER>
MedChemExpress

$$$$
Untitled Document
  ChemDraw04051714182D

 15 15  0  0  0  0  0  0  0  0999 V2000
   -0.7145    0.4125    0.0000 C   0  0  0  0  0  0  0  0  0  0  0  0
   -1.4289    0.0000    0.0000 C   0  0  0  0  0  0  0  0  0  0  0  0
   -1.4289   -0.8250    0.0000 C   0  0  0  0  0  0  0  0  0  0  0  0
   -2.1433   -1.2375    0.0000 C   0  0  0  0  0  0  0  0  0  0  0  0
   -2.8578   -0.8250    0.0000 C   0  0  0  0  0  0  0  0  0  0  0  0
   -2.8578    0.0000    0.0000 C   0  0  0  0  0  0  0  0  0  0  0  0
   -2.1433    0.4125    0.0000 C   0  0  0  0  0  0  0  0  0  0  0  0
   -0.7145    1.2375    0.0000 O   0  0  0  0  0  0  0  0  0  0  0  0
   -0.0000    0.0000    0.0000 N   0  0  0  0  0  0  0  0  0  0  0  0
    0.7145    0.4125    0.0000 N   0  0  0  0  0  0  0  0  0  0  0  0
    1.4289    0.0000    0.0000 C   0  0  0  0  0  0  0  0  0  0  0  0
    2.1433    0.4125    0.0000 C   0  0  0  0  0  0  0  0  0  0  0  0
    2.8578    0.0000    0.0000 C   0  0  0  0  0  0  0  0  0  0  0  0
    3.5723    0.4125    0.0000 C   0  0  0  0  0  0  0  0  0  0  0  0
   -3.5723   -1.2375    0.0000 Br  0  0  0  0  0  0  0  0  0  0  0  0
  1  2  1  0      
  2  3  1  0      
  3  4  2  0      
  4  5  1  0      
  5  6  2  0      
  6  7  1  0      
  2  7  2  0      
  1  8  2  0      
  9 10  1  0      
 11 12  1  0      
 12 13  1  0      
 13 14  1  0      
 10 11  1  0      
  1  9  1  0      
  5 15  1  0      
M  END

>  <RackCode>
HYCPK72336

>  <Cat. No.>
HY-18976

>  <Product Name>
UF010

>  <ROW>
F

>  <COLUMN>
14

>  <CAS No.>
537672-41-6

>  <MWt>
271.15

>  <Target>
HDAC; Interleukin Related; JAK; MyD88; NF-¦ÊB; Toll-like Receptor (TLR)

>  <Saltdate>
Free Base

>  <Smiles>
O=C(NNCCCC)C1=CC=C(Br)C=C1

>  <Solvent>
DMSO Solution

>  <Batch No.>
18745

>  <Quantity>
10mM  * 50uL

>  <Pathway>
Cell Cycle/DNA Damage; Epigenetics; Immunology/Inflammation; JAK/STAT Signaling; NF-¦ÊB; Protein Tyrosine Kinase/RTK; Stem Cell/Wnt

>  <Synonyms>


>  <Formula>
C11H15BrN2O

>  <Research_Area>
Cancer; Inflammation/Immunology; Neurological Disease

>  <Clinical_Information>
No Development Reported

>  <SUPPLIER>
MedChemExpress

$$$$
Untitled Document
  ChemDraw06201615442D

 31 33  0  0  0  0  0  0  0  0999 V2000
   -3.2450   -0.2150    0.0000 C   0  0  0  0  0  0  0  0  0  0  0  0
   -3.2091   -1.0421    0.0000 C   0  0  0  0  0  0  0  0  0  0  0  0
   -2.4749   -1.4245    0.0000 N   0  0  0  0  0  0  0  0  0  0  0  0
   -1.7760   -1.0221    0.0000 C   0  0  0  0  0  0  0  0  0  0  0  0
   -1.7876   -0.1947    0.0000 C   0  0  0  0  0  0  0  0  0  0  0  0
   -2.4974    0.1881    0.0000 C   0  0  0  0  0  0  0  0  0  0  0  0
   -1.0616   -1.4345    0.0000 N   0  0  0  0  0  0  0  0  0  0  0  0
   -0.3471   -1.0221    0.0000 C   0  0  0  0  0  0  0  0  0  0  0  0
    0.3674   -1.4345    0.0000 C   0  0  0  0  0  0  0  0  0  0  0  0
    1.0818   -1.0221    0.0000 C   0  0  0  0  0  0  0  0  0  0  0  0
    1.7963   -1.4345    0.0000 N   0  0  0  0  0  0  0  0  0  0  0  0
    1.8149   -2.2622    0.0000 C   0  0  0  0  0  0  0  0  0  0  0  0
    2.5357   -2.6631    0.0000 C   0  0  0  0  0  0  0  0  0  0  0  0
    3.2450   -2.2623    0.0000 O   0  0  0  0  0  0  0  0  0  0  0  0
    3.2450   -1.4345    0.0000 C   0  0  0  0  0  0  0  0  0  0  0  0
    2.5357   -1.0338    0.0000 C   0  0  0  0  0  0  0  0  0  0  0  0
   -2.4974    1.0131    0.0000 C   0  0  0  0  0  0  0  0  0  0  0  0
   -3.2119    1.4256    0.0000 O   0  0  0  0  0  0  0  0  0  0  0  0
   -1.7829    1.4256    0.0000 N   0  0  0  0  0  0  0  0  0  0  0  0
   -1.0685    1.0131    0.0000 N   0  0  0  0  0  0  0  0  0  0  0  0
   -0.3540    1.4256    0.0000 C   0  0  0  0  0  0  0  0  0  0  0  0
   -0.3540    2.2505    0.0000 C   0  0  0  0  0  0  0  0  0  0  0  0
    0.3604    2.6631    0.0000 C   0  0  0  0  0  0  0  0  0  0  0  0
    0.3604    1.0131    0.0000 C   0  0  0  0  0  0  0  0  0  0  0  0
    0.3421    0.1854    0.0000 C   0  0  0  0  0  0  0  0  0  0  0  0
    1.0497   -0.2441    0.0000 C   0  0  0  0  0  0  0  0  0  0  0  0
    1.7756    0.1538    0.0000 C   0  0  0  0  0  0  0  0  0  0  0  0
    1.7574    0.9807    0.0000 C   0  0  0  0  0  0  0  0  0  0  0  0
    1.0132    1.4095    0.0000 C   0  0  0  0  0  0  0  0  0  0  0  0
    1.0132    2.2345    0.0000 O   0  0  0  0  0  0  0  0  0  0  0  0
    2.4901   -0.2587    0.0000 Cl  0  0  0  0  0  0  0  0  0  0  0  0
  1  2  2  0      
  2  3  1  0      
  3  4  2  0      
  4  5  1  0      
  5  6  2  0      
  6  1  1  0      
  4  7  1  0      
  7  8  1  0      
  8  9  1  0      
  9 10  1  0      
 10 11  1  0      
 11 12  1  0      
 12 13  1  0      
 13 14  1  0      
 14 15  1  0      
 15 16  1  0      
 16 11  1  0      
  6 17  1  0      
 17 18  2  0      
 17 19  1  0      
 19 20  1  0      
 20 21  2  0      
 21 22  1  0      
 22 23  1  0      
 21 24  1  0      
 24 25  2  0      
 25 26  1  0      
 26 27  2  0      
 27 28  1  0      
 28 29  2  0      
 29 24  1  0      
 29 30  1  0      
 27 31  1  0      
M  END

>  <RackCode>
HYCPK72336

>  <Cat. No.>
HY-12830

>  <Product Name>
M-110

>  <ROW>
G

>  <COLUMN>
14

>  <CAS No.>
1395048-49-3

>  <MWt>
445.94

>  <Target>
Pim

>  <Saltdate>
Free Base

>  <Smiles>
O=C(N/N=C(C1=CC=C(Cl)C=C1O)\CC)C2=CC(NCCCN3CCOCC3)=NC=C2

>  <Solvent>
DMSO Solution

>  <Batch No.>
84406

>  <Quantity>
10mM  * 50uL

>  <Pathway>
JAK/STAT Signaling

>  <Synonyms>


>  <Formula>
C22H28ClN5O3

>  <Research_Area>
Cancer

>  <Clinical_Information>
No Development Reported

>  <SUPPLIER>
MedChemExpress

$$$$
Untitled Document
  ChemDraw06132316312D

 17 17  0  0  0  0  0  0  0  0999 V2000
   -0.0000    1.4437    0.0000 Br  0  0  0  0  0  0  0  0  0  0  0  0
    0.7145    1.0312    0.0000 C   0  0  0  0  0  0  0  0  0  0  0  0
    0.7145    0.2062    0.0000 C   0  0  0  0  0  0  0  0  0  0  0  0
   -0.0000   -0.2062    0.0000 N   0  0  0  0  0  0  0  0  0  0  0  0
   -0.7145    0.2062    0.0000 C   0  0  0  0  0  0  0  0  0  0  0  0
   -1.4289   -0.2062    0.0000 C   0  0  0  0  0  0  0  0  0  0  0  0
   -2.1434    0.2062    0.0000 C   0  0  0  0  0  0  0  0  0  0  0  0
   -2.8579    0.6188    0.0000 N   0  0  0  0  0  0  0  0  0  0  0  0
   -1.4289   -1.0313    0.0000 C   0  0  0  0  0  0  0  0  0  0  0  0
   -2.1434   -1.4437    0.0000 C   0  0  0  0  0  0  0  0  0  0  0  0
   -0.7145   -1.4438    0.0000 O   0  0  0  0  0  0  0  0  0  0  0  0
   -0.7145    1.0313    0.0000 O   0  0  0  0  0  0  0  0  0  0  0  0
    1.4289   -0.2062    0.0000 C   0  0  0  0  0  0  0  0  0  0  0  0
    2.1434    0.2062    0.0000 C   0  0  0  0  0  0  0  0  0  0  0  0
    2.8579   -0.2062    0.0000 Br  0  0  0  0  0  0  0  0  0  0  0  0
    2.1434    1.0313    0.0000 C   0  0  0  0  0  0  0  0  0  0  0  0
    1.4289    1.4438    0.0000 C   0  0  0  0  0  0  0  0  0  0  0  0
  1  2  1  0      
  2  3  2  0      
  3  4  1  0      
  4  5  1  0      
  5  6  1  0      
  6  7  1  0      
  7  8  3  0      
  6  9  2  0      
  9 10  1  0      
  9 11  1  0      
  5 12  2  0      
  3 13  1  0      
 13 14  2  0      
 14 15  1  0      
 14 16  1  0      
 16 17  2  0      
  2 17  1  0      
M  END

>  <RackCode>
HYCPK72336

>  <Cat. No.>
HY-18009

>  <Product Name>
(Z)-LFM-A13

>  <ROW>
H

>  <COLUMN>
14

>  <CAS No.>
244240-24-2

>  <MWt>
360.01

>  <Target>
Btk; JAK; Polo-like Kinase (PLK)

>  <Saltdate>
Free Base

>  <Smiles>
BrC1=C(NC(/C(C#N)=C(C)\O)=O)C=C(Br)C=C1

>  <Solvent>
DMSO Solution

>  <Batch No.>
15376

>  <Quantity>
10mM  * 50uL

>  <Pathway>
Cell Cycle/DNA Damage; Epigenetics; JAK/STAT Signaling; Protein Tyrosine Kinase/RTK; Stem Cell/Wnt

>  <Synonyms>


>  <Formula>
C11H8Br2N2O2

>  <Research_Area>
Cancer

>  <Clinical_Information>
No Development Reported

>  <SUPPLIER>
MedChemExpress

$$$$
Untitled Document
  ChemDraw07241714232D

 32 36  0  0  0  0  0  0  0  0999 V2000
   -3.6983    2.4059    0.0000 C   0  0  0  0  0  0  0  0  0  0  0  0
   -3.0332    1.9227    0.0000 N   0  0  0  0  0  0  0  0  0  0  0  0
   -3.1191    1.1050    0.0000 C   0  0  0  0  0  0  0  0  0  0  0  0
   -2.2821    2.2570    0.0000 C   0  0  0  0  0  0  0  0  0  0  0  0
   -2.1962    3.0747    0.0000 O   0  0  0  0  0  0  0  0  0  0  0  0
   -1.6170    1.7738    0.0000 C   0  0  0  0  0  0  0  0  0  0  0  0
   -0.8660    2.1082    0.0000 C   0  0  0  0  0  0  0  0  0  0  0  0
   -0.2008    1.6250    0.0000 C   0  0  0  0  0  0  0  0  0  0  0  0
   -0.2008    0.8028    0.0000 O   0  0  0  0  0  0  0  0  0  0  0  0
    0.5811    0.5488    0.0000 C   0  0  0  0  0  0  0  0  0  0  0  0
    1.0643    1.2139    0.0000 C   0  0  0  0  0  0  0  0  0  0  0  0
    0.5811    1.8790    0.0000 C   0  0  0  0  0  0  0  0  0  0  0  0
    0.8351   -0.2331    0.0000 C   0  0  0  0  0  0  0  0  0  0  0  0
    0.3519   -0.8983    0.0000 N   0  0  0  0  0  0  0  0  0  0  0  0
    0.8351   -1.5634    0.0000 C   0  0  0  0  0  0  0  0  0  0  0  0
    1.6170   -1.3093    0.0000 C   0  0  0  0  0  0  0  0  0  0  0  0
    1.6170   -0.4872    0.0000 N   0  0  0  0  0  0  0  0  0  0  0  0
    2.2821   -0.0039    0.0000 C   0  0  0  0  0  0  0  0  0  0  0  0
    3.0332   -0.3383    0.0000 C   0  0  0  0  0  0  0  0  0  0  0  0
    3.6983    0.1449    0.0000 C   0  0  0  0  0  0  0  0  0  0  0  0
    3.6124    0.9625    0.0000 C   0  0  0  0  0  0  0  0  0  0  0  0
    2.8613    1.2969    0.0000 C   0  0  0  0  0  0  0  0  0  0  0  0
    2.1962    0.8137    0.0000 C   0  0  0  0  0  0  0  0  0  0  0  0
    0.6642   -2.3675    0.0000 C   0  0  0  0  0  0  0  0  0  0  0  0
    1.2752   -2.9177    0.0000 N   0  0  0  0  0  0  0  0  0  0  0  0
    2.0571   -2.6636    0.0000 C   0  0  0  0  0  0  0  0  0  0  0  0
    2.2280   -1.8594    0.0000 C   0  0  0  0  0  0  0  0  0  0  0  0
    2.7690   -3.0747    0.0000 N   0  0  0  0  0  0  0  0  0  0  0  0
    3.3800   -2.5246    0.0000 C   0  0  0  0  0  0  0  0  0  0  0  0
    3.0456   -1.7735    0.0000 C   0  0  0  0  0  0  0  0  0  0  0  0
   -1.7030    0.9562    0.0000 C   0  0  0  0  0  0  0  0  0  0  0  0
   -1.7889    0.1385    0.0000 N   0  0  0  0  0  0  0  0  0  0  0  0
  1  2  1  0      
  2  3  1  0      
  2  4  1  0      
  4  5  2  0      
  4  6  1  0      
  6 31  1  0      
  6  7  2  0      
  7  8  1  0      
  8  9  1  0      
  9 10  1  0      
 10 11  2  0      
 11 12  1  0      
 12  8  2  0      
 10 13  1  0      
 13 14  2  0      
 14 15  1  0      
 15 16  1  0      
 16 17  1  0      
 17 13  1  0      
 17 18  1  0      
 18 19  1  0      
 19 20  1  0      
 20 21  1  0      
 21 22  1  0      
 22 23  1  0      
 23 18  1  0      
 15 24  2  0      
 24 25  1  0      
 25 26  2  0      
 26 27  1  0      
 27 16  2  0      
 26 28  1  0      
 28 29  1  0      
 29 30  2  0      
 30 27  1  0      
 31 32  3  0      
M  END

>  <RackCode>
HYCPK72336

>  <Cat. No.>
HY-102046

>  <Product Name>
FM-381

>  <ROW>
I

>  <COLUMN>
14

>  <CAS No.>
2226521-65-7

>  <MWt>
428.49

>  <Target>
JAK

>  <Saltdate>
Free Base

>  <Smiles>
CN(C(/C(C#N)=C/C1=CC=C(C2=NC3=CN=C(NC=C4)C4=C3N2C5CCCCC5)O1)=O)C

>  <Solvent>
DMSO Solution

>  <Batch No.>
29197

>  <Quantity>
10mM  * 50uL

>  <Pathway>
Epigenetics; JAK/STAT Signaling; Protein Tyrosine Kinase/RTK; Stem Cell/Wnt

>  <Synonyms>


>  <Formula>
C24H24N6O2

>  <Research_Area>
Inflammation/Immunology

>  <Clinical_Information>
No Development Reported

>  <SUPPLIER>
MedChemExpress

$$$$
Untitled Document
  ChemDraw05101917272D

 29 33  0  0  0  0  0  0  0  0999 V2000
    1.0717   -1.6500    0.0000 C   0  0  0  0  0  0  0  0  0  0  0  0
    0.3572   -2.0625    0.0000 N   0  0  0  0  0  0  0  0  0  0  0  0
   -0.3572   -1.6500    0.0000 C   0  0  0  0  0  0  0  0  0  0  0  0
   -1.0717   -2.0625    0.0000 C   0  0  0  0  0  0  0  0  0  0  0  0
   -1.7862   -1.6500    0.0000 C   0  0  0  0  0  0  0  0  0  0  0  0
   -1.7862   -0.8250    0.0000 C   0  0  0  0  0  0  0  0  0  0  0  0
   -2.5006   -0.4125    0.0000 N   0  0  0  0  0  0  0  0  0  0  0  0
   -3.2151   -0.8250    0.0000 C   0  0  0  0  0  0  0  0  0  0  0  0
   -3.9296   -0.4125    0.0000 C   0  0  0  0  0  0  0  0  0  0  0  0
   -3.9296    0.4125    0.0000 O   0  0  0  0  0  0  0  0  0  0  0  0
   -3.2151    0.8250    0.0000 C   0  0  0  0  0  0  0  0  0  0  0  0
   -2.5006    0.4125    0.0000 C   0  0  0  0  0  0  0  0  0  0  0  0
   -1.0717   -0.4125    0.0000 C   0  0  0  0  0  0  0  0  0  0  0  0
   -0.3572   -0.8250    0.0000 C   0  0  0  0  0  0  0  0  0  0  0  0
    1.0717   -0.8250    0.0000 N   0  0  0  0  0  0  0  0  0  0  0  0
    1.7862   -0.4125    0.0000 C   0  0  0  0  0  0  0  0  0  0  0  0
    1.7862    0.4125    0.0000 N   0  0  0  0  0  0  0  0  0  0  0  0
    2.5006    0.8250    0.0000 C   0  0  0  0  0  0  0  0  0  0  0  0
    2.5006    1.6500    0.0000 C   0  0  0  0  0  0  0  0  0  0  0  0
    3.2151    2.0625    0.0000 C   0  0  0  0  0  0  0  0  0  0  0  0
    3.9296    1.6500    0.0000 C   0  0  0  0  0  0  0  0  0  0  0  0
    3.9296    0.8250    0.0000 C   0  0  0  0  0  0  0  0  0  0  0  0
    3.2151    0.4125    0.0000 C   0  0  0  0  0  0  0  0  0  0  0  0
    2.5006   -0.8250    0.0000 C   0  0  0  0  0  0  0  0  0  0  0  0
    2.5006   -1.6500    0.0000 C   0  0  0  0  0  0  0  0  0  0  0  0
    3.2853   -1.9049    0.0000 N   0  0  0  0  0  0  0  0  0  0  0  0
    3.7702   -1.2375    0.0000 C   0  0  0  0  0  0  0  0  0  0  0  0
    3.2853   -0.5701    0.0000 N   0  0  0  0  0  0  0  0  0  0  0  0
    1.7862   -2.0625    0.0000 N   0  0  0  0  0  0  0  0  0  0  0  0
  1  2  1  0      
  2  3  1  0      
  3  4  2  0      
  4  5  1  0      
  5  6  2  0      
  6  7  1  0      
  7  8  1  0      
  8  9  1  0      
  9 10  1  0      
 10 11  1  0      
 11 12  1  0      
  7 12  1  0      
  6 13  1  0      
 13 14  2  0      
  3 14  1  0      
  1 15  2  0      
 15 16  1  0      
 16 17  1  0      
 17 18  1  0      
 18 19  1  0      
 19 20  1  0      
 20 21  1  0      
 21 22  1  0      
 22 23  1  0      
 18 23  1  0      
 16 24  2  0      
 24 25  1  0      
 25 26  1  0      
 26 27  1  0      
 27 28  2  0      
 24 28  1  0      
 25 29  2  0      
  1 29  1  0      
M  END

>  <RackCode>
HYCPK72336

>  <Cat. No.>
HY-14711

>  <Product Name>
Reversine

>  <ROW>
J

>  <COLUMN>
14

>  <CAS No.>
656820-32-5

>  <MWt>
393.49

>  <Target>
Aurora Kinase; Autophagy

>  <Saltdate>
Free Base

>  <Smiles>
C1(NC2=CC=C(N3CCOCC3)C=C2)=NC(NC4CCCCC4)=C5C(NC=N5)=N1

>  <Solvent>
DMSO Solution

>  <Batch No.>
09473

>  <Quantity>
10mM  * 50uL

>  <Pathway>
Autophagy; Cell Cycle/DNA Damage; Epigenetics

>  <Synonyms>


>  <Formula>
C21H27N7O

>  <Research_Area>
Cancer

>  <Clinical_Information>
No Development Reported

>  <SUPPLIER>
MedChemExpress

$$$$
Untitled Document
  ChemDraw11252213022D

 22 24  0  0  0  0  0  0  0  0999 V2000
   -3.2150    0.2062    0.0000 C   0  0  0  0  0  0  0  0  0  0  0  0
   -3.2150   -0.6187    0.0000 C   0  0  0  0  0  0  0  0  0  0  0  0
   -2.5005   -1.0313    0.0000 C   0  0  0  0  0  0  0  0  0  0  0  0
   -1.7861   -0.6187    0.0000 C   0  0  0  0  0  0  0  0  0  0  0  0
   -1.7861    0.2062    0.0000 C   0  0  0  0  0  0  0  0  0  0  0  0
   -2.5005    0.6188    0.0000 C   0  0  0  0  0  0  0  0  0  0  0  0
   -3.9295   -1.0313    0.0000 O   0  0  0  0  0  0  0  0  0  0  0  0
   -2.5005   -1.8562    0.0000 C   0  0  0  0  0  0  0  0  0  0  0  0
   -2.5005    1.4438    0.0000 N   0  0  0  0  0  0  0  0  0  0  0  0
   -1.0717    0.6188    0.0000 N   0  0  0  0  0  0  0  0  0  0  0  0
   -0.3572    0.2062    0.0000 N   0  0  0  0  0  0  0  0  0  0  0  0
    0.3572    0.6188    0.0000 C   0  0  0  0  0  0  0  0  0  0  0  0
    1.0717    0.2062    0.0000 C   0  0  0  0  0  0  0  0  0  0  0  0
    1.7861    0.6188    0.0000 C   0  0  0  0  0  0  0  0  0  0  0  0
    1.7861    1.4438    0.0000 C   0  0  0  0  0  0  0  0  0  0  0  0
    1.0717    1.8562    0.0000 C   0  0  0  0  0  0  0  0  0  0  0  0
    0.3572    1.4438    0.0000 C   0  0  0  0  0  0  0  0  0  0  0  0
    2.5005    0.2062    0.0000 C   0  0  0  0  0  0  0  0  0  0  0  0
    3.2150    0.6188    0.0000 C   0  0  0  0  0  0  0  0  0  0  0  0
    3.2150    1.4438    0.0000 C   0  0  0  0  0  0  0  0  0  0  0  0
    2.5005    1.8562    0.0000 N   0  0  0  0  0  0  0  0  0  0  0  0
    3.9295    1.8562    0.0000 O   0  0  0  0  0  0  0  0  0  0  0  0
  1  2  2  0      
  2  3  1  0      
  3  4  2  0      
  4  5  1  0      
  5  6  2  0      
  6  1  1  0      
  2  7  1  0      
  3  8  1  0      
  6  9  1  0      
  5 10  1  0      
 10 11  2  0      
 11 12  1  0      
 12 13  2  0      
 13 14  1  0      
 14 15  2  0      
 15 16  1  0      
 16 17  2  0      
 17 12  1  0      
 14 18  1  0      
 18 19  1  0      
 19 20  1  0      
 20 21  1  0      
 21 15  1  0      
 20 22  2  0      
M  END

>  <RackCode>
HYCPK72336

>  <Cat. No.>
HY-112149

>  <Product Name>
ZL0420

>  <ROW>
K

>  <COLUMN>
14

>  <CAS No.>
2230496-80-5

>  <MWt>
296.32

>  <Target>
Epigenetic Reader Domain

>  <Saltdate>
Free Base

>  <Smiles>
OC1=CC(N)=C(/N=N/C2=CC(CCC(N3)=O)=C3C=C2)C=C1C

>  <Solvent>
DMSO Solution

>  <Batch No.>
36174

>  <Quantity>
10mM  * 50uL

>  <Pathway>
Epigenetics

>  <Synonyms>


>  <Formula>
C16H16N4O2

>  <Research_Area>
Inflammation/Immunology

>  <Clinical_Information>
No Development Reported

>  <SUPPLIER>
MedChemExpress

$$$$
Untitled Document
  ChemDraw06032015042D

 19 22  0  0  0  0  0  0  0  0999 V2000
    0.8974   -0.9810    0.0000 N   0  0  0  0  0  0  0  0  0  0  0  0
    0.4125   -0.3135    0.0000 N   0  0  0  0  0  0  0  0  0  0  0  0
    0.8974    0.3539    0.0000 C   0  0  0  0  0  0  0  0  0  0  0  0
    1.6820    0.0990    0.0000 C   0  0  0  0  0  0  0  0  0  0  0  0
    2.3965    0.5115    0.0000 C   0  0  0  0  0  0  0  0  0  0  0  0
    3.1110    0.0990    0.0000 C   0  0  0  0  0  0  0  0  0  0  0  0
    3.1110   -0.7260    0.0000 C   0  0  0  0  0  0  0  0  0  0  0  0
    2.3965   -1.1385    0.0000 C   0  0  0  0  0  0  0  0  0  0  0  0
    1.6820   -0.7260    0.0000 C   0  0  0  0  0  0  0  0  0  0  0  0
    0.6425    1.1385    0.0000 O   0  0  0  0  0  0  0  0  0  0  0  0
   -0.8974    0.3539    0.0000 S   0  0  0  0  0  0  0  0  0  0  0  0
   -0.4125   -0.3135    0.0000 C   0  0  0  0  0  0  0  0  0  0  0  0
   -0.8974   -0.9810    0.0000 N   0  0  0  0  0  0  0  0  0  0  0  0
   -1.6820   -0.7260    0.0000 C   0  0  0  0  0  0  0  0  0  0  0  0
   -1.6820    0.0990    0.0000 C   0  0  0  0  0  0  0  0  0  0  0  0
   -2.3965   -1.1385    0.0000 C   0  0  0  0  0  0  0  0  0  0  0  0
   -3.1110   -0.7260    0.0000 C   0  0  0  0  0  0  0  0  0  0  0  0
   -3.1110    0.0990    0.0000 C   0  0  0  0  0  0  0  0  0  0  0  0
   -2.3965    0.5115    0.0000 C   0  0  0  0  0  0  0  0  0  0  0  0
  1  2  1  0      
  2  3  1  0      
  3  4  2  0      
  4  5  1  0      
  5  6  1  0      
  6  7  1  0      
  7  8  1  0      
  8  9  1  0      
  1  9  2  0      
  4  9  1  0      
  3 10  1  0      
 11 12  1  0      
 12 13  2  0      
 13 14  1  0      
 14 15  1  0      
 11 15  1  0      
 16 17  1  0      
 17 18  2  0      
 18 19  1  0      
 19 15  2  0      
 16 14  2  0      
  2 12  1  0      
M  END

>  <RackCode>
HYCPK72336

>  <Cat. No.>
HY-131140

>  <Product Name>
BD750

>  <ROW>
L

>  <COLUMN>
14

>  <CAS No.>
892686-59-8

>  <MWt>
271.34

>  <Target>
JAK; STAT

>  <Saltdate>
Free Base

>  <Smiles>
OC1=C2CCCCC2=NN1C3=NC4=CC=CC=C4S3

>  <Solvent>
DMSO Solution

>  <Batch No.>
85618

>  <Quantity>
10mM  * 50uL

>  <Pathway>
Epigenetics; JAK/STAT Signaling; Protein Tyrosine Kinase/RTK; Stem Cell/Wnt

>  <Synonyms>


>  <Formula>
C14H13N3OS

>  <Research_Area>
Cancer; Inflammation/Immunology

>  <Clinical_Information>
No Development Reported

>  <SUPPLIER>
MedChemExpress

$$$$
Untitled Document
  ChemDraw04092016302D

 20 21  0  0  0  0  0  0  0  0999 V2000
   -1.0877    0.8720    0.0000 C   0  0  0  0  0  0  0  0  0  0  0  0
   -0.6028    1.5394    0.0000 N   0  0  0  0  0  0  0  0  0  0  0  0
    0.1818    1.2845    0.0000 C   0  0  0  0  0  0  0  0  0  0  0  0
    0.1818    0.4595    0.0000 C   0  0  0  0  0  0  0  0  0  0  0  0
   -0.6028    0.2045    0.0000 N   0  0  0  0  0  0  0  0  0  0  0  0
    0.8963    1.6970    0.0000 C   0  0  0  0  0  0  0  0  0  0  0  0
    1.6108    1.2845    0.0000 C   0  0  0  0  0  0  0  0  0  0  0  0
    1.6108    0.4595    0.0000 C   0  0  0  0  0  0  0  0  0  0  0  0
    0.8963    0.0470    0.0000 C   0  0  0  0  0  0  0  0  0  0  0  0
   -0.3057   -1.7518    0.0000 C   0  0  0  0  0  0  0  0  0  0  0  0
   -0.8577   -1.0098    0.0000 C   0  0  0  0  0  0  0  0  0  0  0  0
   -0.6014   -2.5220    0.0000 O   0  0  0  0  0  0  0  0  0  0  0  0
    0.5091   -1.6227    0.0000 O   0  0  0  0  0  0  0  0  0  0  0  0
   -1.9127    0.8720    0.0000 N   0  0  0  0  0  0  0  0  0  0  0  0
   -2.3252    1.5864    0.0000 C   0  0  0  0  0  0  0  0  0  0  0  0
   -2.3252    0.1575    0.0000 C   0  0  0  0  0  0  0  0  0  0  0  0
    2.3252    0.0470    0.0000 Br  0  0  0  0  0  0  0  0  0  0  0  0
    2.3252    1.6970    0.0000 Br  0  0  0  0  0  0  0  0  0  0  0  0
    0.8963    2.5220    0.0000 Br  0  0  0  0  0  0  0  0  0  0  0  0
    0.8963   -0.7780    0.0000 Br  0  0  0  0  0  0  0  0  0  0  0  0
  1  2  2  0      
  2  3  1  0      
  3  4  1  0      
  4  5  1  0      
  1  5  1  0      
  6  7  1  0      
  7  8  2  0      
  8  9  1  0      
  9  4  2  0      
  6  3  2  0      
 10 11  1  0      
 10 12  2  0      
 10 13  1  0      
  5 11  1  0      
 14 15  1  0      
 14 16  1  0      
  1 14  1  0      
  8 17  1  0      
  7 18  1  0      
  6 19  1  0      
  9 20  1  0      
M  END

>  <RackCode>
HYCPK72336

>  <Cat. No.>
HY-135906

>  <Product Name>
CK2/ERK8-IN-1

>  <ROW>
M

>  <COLUMN>
14

>  <CAS No.>
1085822-09-8

>  <MWt>
534.82

>  <Target>
Apoptosis; Casein Kinase; DYRK; ERK; Pim

>  <Saltdate>


>  <Smiles>
O=C(O)CN1C2=C(Br)C(Br)=C(Br)C(Br)=C2N=C1N(C)C

>  <Solvent>
DMSO Solution

>  <Batch No.>
88944

>  <Quantity>
10mM  * 50uL

>  <Pathway>
Apoptosis; Cell Cycle/DNA Damage; JAK/STAT Signaling; MAPK/ERK Pathway; Protein Tyrosine Kinase/RTK; Stem Cell/Wnt

>  <Synonyms>


>  <Formula>
C11H9Br4N3O2

>  <Research_Area>
Cancer

>  <Clinical_Information>
No Development Reported

>  <SUPPLIER>
MedChemExpress

$$$$
Untitled Document
  ChemDraw05101917272D

 21 23  0  0  0  0  0  0  0  0999 V2000
   -1.0717   -2.2687    0.0000 O   0  0  0  0  0  0  0  0  0  0  0  0
   -1.0717   -1.4437    0.0000 C   0  0  0  0  0  0  0  0  0  0  0  0
   -1.7862   -1.0312    0.0000 C   0  0  0  0  0  0  0  0  0  0  0  0
   -2.5006   -1.4437    0.0000 C   0  0  0  0  0  0  0  0  0  0  0  0
   -3.2151   -1.0312    0.0000 S   0  0  0  0  0  0  0  0  0  0  0  0
   -3.2151   -0.2062    0.0000 C   0  0  0  0  0  0  0  0  0  0  0  0
   -2.5006    0.2063    0.0000 C   0  0  0  0  0  0  0  0  0  0  0  0
   -1.7862   -0.2062    0.0000 C   0  0  0  0  0  0  0  0  0  0  0  0
   -1.0717    0.2063    0.0000 N   0  0  0  0  0  0  0  0  0  0  0  0
   -0.3572   -0.2063    0.0000 C   0  0  0  0  0  0  0  0  0  0  0  0
    0.3572    0.2062    0.0000 C   0  0  0  0  0  0  0  0  0  0  0  0
    0.3572    1.0312    0.0000 C   0  0  0  0  0  0  0  0  0  0  0  0
    1.0717    1.4438    0.0000 C   0  0  0  0  0  0  0  0  0  0  0  0
    1.7862    1.0312    0.0000 C   0  0  0  0  0  0  0  0  0  0  0  0
    2.5006    1.4437    0.0000 C   0  0  0  0  0  0  0  0  0  0  0  0
    3.2151    1.8562    0.0000 F   0  0  0  0  0  0  0  0  0  0  0  0
    2.5006    2.2687    0.0000 F   0  0  0  0  0  0  0  0  0  0  0  0
    3.2151    1.0312    0.0000 F   0  0  0  0  0  0  0  0  0  0  0  0
    1.7862    0.2062    0.0000 C   0  0  0  0  0  0  0  0  0  0  0  0
    1.0717   -0.2063    0.0000 C   0  0  0  0  0  0  0  0  0  0  0  0
   -0.3572   -1.0312    0.0000 N   0  0  0  0  0  0  0  0  0  0  0  0
  1  2  2  0      
  2  3  1  0      
  3  4  1  0      
  4  5  1  0      
  5  6  1  0      
  6  7  1  0      
  3  8  2  0      
  7  8  1  0      
  8  9  1  0      
  9 10  2  0      
 10 11  1  0      
 11 12  2  0      
 12 13  1  0      
 13 14  2  0      
 14 15  1  0      
 15 16  1  0      
 15 17  1  0      
 15 18  1  0      
 14 19  1  0      
 19 20  2  0      
 11 20  1  0      
 10 21  1  0      
  2 21  1  0      
M  END

>  <RackCode>
HYCPK72336

>  <Cat. No.>
HY-15147

>  <Product Name>
XAV-939

>  <ROW>
N

>  <COLUMN>
14

>  <CAS No.>
284028-89-3

>  <MWt>
312.31

>  <Target>
PARP; ¦Â-catenin

>  <Saltdate>
Free Base

>  <Smiles>
O=C1C(CSCC2)=C2N=C(C3=CC=C(C(F)(F)F)C=C3)N1

>  <Solvent>
DMSO Solution

>  <Batch No.>
152362

>  <Quantity>
10mM  * 50uL

>  <Pathway>
Cell Cycle/DNA Damage; Epigenetics; Stem Cell/Wnt

>  <Synonyms>


>  <Formula>
C14H11F3N2OS

>  <Research_Area>
Cancer

>  <Clinical_Information>
No Development Reported

>  <SUPPLIER>
MedChemExpress

$$$$
Untitled Document
  ChemDraw10161810312D

 24 26  0  0  0  0  0  0  0  0999 V2000
    2.3620    1.6987    0.0000 N   0  0  0  0  0  0  0  0  0  0  0  0
    2.8469    1.0313    0.0000 C   0  0  0  0  0  0  0  0  0  0  0  0
    2.3620    0.3638    0.0000 C   0  0  0  0  0  0  0  0  0  0  0  0
    1.5774    0.6188    0.0000 C   0  0  0  0  0  0  0  0  0  0  0  0
    0.8629    0.2062    0.0000 C   0  0  0  0  0  0  0  0  0  0  0  0
    0.1484    0.6188    0.0000 C   0  0  0  0  0  0  0  0  0  0  0  0
    0.1484    1.4438    0.0000 C   0  0  0  0  0  0  0  0  0  0  0  0
    0.8629    1.8563    0.0000 C   0  0  0  0  0  0  0  0  0  0  0  0
    1.5774    1.4438    0.0000 C   0  0  0  0  0  0  0  0  0  0  0  0
    2.6169   -0.4208    0.0000 C   0  0  0  0  0  0  0  0  0  0  0  0
    2.0649   -1.0339    0.0000 O   0  0  0  0  0  0  0  0  0  0  0  0
    3.4239   -0.5923    0.0000 O   0  0  0  0  0  0  0  0  0  0  0  0
   -0.5660   -0.6187    0.0000 C   0  0  0  0  0  0  0  0  0  0  0  0
   -0.5660    0.2062    0.0000 C   0  0  0  0  0  0  0  0  0  0  0  0
   -1.2805    0.6188    0.0000 C   0  0  0  0  0  0  0  0  0  0  0  0
   -1.9950    0.2062    0.0000 C   0  0  0  0  0  0  0  0  0  0  0  0
   -1.9950   -0.6187    0.0000 C   0  0  0  0  0  0  0  0  0  0  0  0
   -1.2805   -1.0313    0.0000 N   0  0  0  0  0  0  0  0  0  0  0  0
    0.1484   -1.0313    0.0000 O   0  0  0  0  0  0  0  0  0  0  0  0
    0.8629   -0.6187    0.0000 C   0  0  0  0  0  0  0  0  0  0  0  0
   -2.7094   -1.0313    0.0000 N   0  0  0  0  0  0  0  0  0  0  0  0
   -2.7094   -1.8563    0.0000 C   0  0  0  0  0  0  0  0  0  0  0  0
   -3.4239   -0.6187    0.0000 C   0  0  0  0  0  0  0  0  0  0  0  0
   -0.5660    1.8563    0.0000 Cl  0  0  0  0  0  0  0  0  0  0  0  0
  1  2  1  0      
  2  3  2  0      
  3  4  1  0      
  4  5  1  0      
  5  6  2  0      
  6  7  1  0      
  7  8  2  0      
  8  9  1  0      
  1  9  1  0      
  4  9  2  0      
 10 11  2  0      
 10 12  1  0      
  3 10  1  0      
 13 14  1  0      
 14 15  2  0      
 15 16  1  0      
 16 17  2  0      
 17 18  1  0      
 13 18  2  0      
 19 20  1  0      
 13 19  1  0      
 21 22  1  0      
 21 23  1  0      
 17 21  1  0      
  6 14  1  0      
  7 24  1  0      
M  END

>  <RackCode>
HYCPK72336

>  <Cat. No.>
HY-117623

>  <Product Name>
PF-06685249

>  <ROW>
O

>  <COLUMN>
14

>  <CAS No.>
1467059-70-6

>  <MWt>
345.78

>  <Target>
AMPK

>  <Saltdate>


>  <Smiles>
O=C(C1=CNC2=C1C=C(C3=CC=C(N(C)C)N=C3OC)C(Cl)=C2)O

>  <Solvent>
DMSO Solution

>  <Batch No.>
223449

>  <Quantity>
10mM  * 50uL

>  <Pathway>
Epigenetics; PI3K/Akt/mTOR

>  <Synonyms>
PF-249

>  <Formula>
C17H16ClN3O3

>  <Research_Area>
Metabolic Disease

>  <Clinical_Information>
No Development Reported

>  <SUPPLIER>
MedChemExpress

$$$$
Untitled Document
  ChemDraw01181709022D

 37 41  0  0  0  0  0  0  0  0999 V2000
    2.0796   -1.8563    0.0000 N   0  0  0  0  0  0  0  0  0  0  0  0
    2.7959   -1.4438    0.0000 C   0  0  0  0  0  0  0  0  0  0  0  0
    2.7959   -0.6188    0.0000 N   0  0  0  0  0  0  0  0  0  0  0  0
    2.0796   -0.2063    0.0000 C   0  0  0  0  0  0  0  0  0  0  0  0
    1.3693   -0.6188    0.0000 C   0  0  0  0  0  0  0  0  0  0  0  0
    0.6531   -0.2063    0.0000 C   0  0  0  0  0  0  0  0  0  0  0  0
   -0.0630   -0.6188    0.0000 C   0  0  0  0  0  0  0  0  0  0  0  0
   -0.0630   -1.4438    0.0000 C   0  0  0  0  0  0  0  0  0  0  0  0
    0.6531   -1.8563    0.0000 C   0  0  0  0  0  0  0  0  0  0  0  0
    1.3693   -1.4438    0.0000 C   0  0  0  0  0  0  0  0  0  0  0  0
    2.0796    0.6187    0.0000 N   0  0  0  0  0  0  0  0  0  0  0  0
   -0.7791   -1.8563    0.0000 O   0  0  0  0  0  0  0  0  0  0  0  0
   -1.4896   -1.4438    0.0000 C   0  0  0  0  0  0  0  0  0  0  0  0
   -2.2057   -1.8563    0.0000 C   0  0  0  0  0  0  0  0  0  0  0  0
   -2.9219   -1.4438    0.0000 C   0  0  0  0  0  0  0  0  0  0  0  0
   -3.6323   -1.8563    0.0000 N   0  0  0  0  0  0  0  0  0  0  0  0
   -4.3885   -1.5239    0.0000 C   0  0  0  0  0  0  0  0  0  0  0  0
   -4.9385   -2.1369    0.0000 C   0  0  0  0  0  0  0  0  0  0  0  0
   -4.5260   -2.8474    0.0000 C   0  0  0  0  0  0  0  0  0  0  0  0
   -3.7240   -2.6755    0.0000 C   0  0  0  0  0  0  0  0  0  0  0  0
   -0.0630    1.8562    0.0000 N   0  0  0  0  0  0  0  0  0  0  0  0
   -0.0630    1.0312    0.0000 C   0  0  0  0  0  0  0  0  0  0  0  0
    0.6531    0.6187    0.0000 C   0  0  0  0  0  0  0  0  0  0  0  0
    1.3693    1.0312    0.0000 C   0  0  0  0  0  0  0  0  0  0  0  0
    1.3693    1.8562    0.0000 C   0  0  0  0  0  0  0  0  0  0  0  0
    0.6531    2.2687    0.0000 C   0  0  0  0  0  0  0  0  0  0  0  0
   -0.7791    2.2687    0.0000 C   0  0  0  0  0  0  0  0  0  0  0  0
   -0.7791    3.0938    0.0000 C   0  0  0  0  0  0  0  0  0  0  0  0
   -1.4896    1.8562    0.0000 C   0  0  0  0  0  0  0  0  0  0  0  0
   -0.7791   -0.2063    0.0000 O   0  0  0  0  0  0  0  0  0  0  0  0
   -1.4896   -0.6188    0.0000 C   0  0  0  0  0  0  0  0  0  0  0  0
    3.5120   -1.8563    0.0000 C   0  0  0  0  0  0  0  0  0  0  0  0
    3.5120   -2.6813    0.0000 C   0  0  0  0  0  0  0  0  0  0  0  0
    4.2224   -3.0938    0.0000 C   0  0  0  0  0  0  0  0  0  0  0  0
    4.9385   -2.6813    0.0000 C   0  0  0  0  0  0  0  0  0  0  0  0
    4.9385   -1.8563    0.0000 C   0  0  0  0  0  0  0  0  0  0  0  0
    4.2224   -1.4438    0.0000 C   0  0  0  0  0  0  0  0  0  0  0  0
  1  2  1  0      
  2  3  2  0      
  3  4  1  0      
  4  5  2  0      
  5  6  1  0      
  6  7  2  0      
  7  8  1  0      
  8  9  2  0      
  9 10  1  0      
  1 10  2  0      
  5 10  1  0      
  4 11  1  0      
 13 14  1  0      
 14 15  1  0      
 12 13  1  0      
 16 17  1  0      
 17 18  1  0      
 18 19  1  0      
 19 20  1  0      
 16 20  1  0      
 15 16  1  0      
  8 12  1  0      
 21 22  1  0      
 22 23  1  0      
 23 24  1  0      
 24 25  1  0      
 25 26  1  0      
 21 26  1  0      
 27 28  1  0      
 27 29  1  0      
 21 27  1  0      
 11 24  1  0      
 30 31  1  0      
  7 30  1  0      
 32 33  1  0      
 33 34  1  0      
 34 35  1  0      
 35 36  1  0      
 36 37  1  0      
 32 37  1  0      
  2 32  1  0      
M  END

>  <RackCode>
HYCPK72336

>  <Cat. No.>
HY-15273

>  <Product Name>
UNC0638

>  <ROW>
P

>  <COLUMN>
14

>  <CAS No.>
1255580-76-7

>  <MWt>
509.73

>  <Target>
Autophagy; Histone Methyltransferase; Influenza Virus; VSV

>  <Saltdate>
Free Base

>  <Smiles>
CC(N1CCC(NC2=C3C=C(OC)C(OCCCN4CCCC4)=CC3=NC(C5CCCCC5)=N2)CC1)C

>  <Solvent>
DMSO Solution

>  <Batch No.>
21373

>  <Quantity>
10mM  * 50uL

>  <Pathway>
Anti-infection; Autophagy; Epigenetics

>  <Synonyms>


>  <Formula>
C30H47N5O2

>  <Research_Area>
Cancer; Infection

>  <Clinical_Information>
No Development Reported

>  <SUPPLIER>
MedChemExpress

$$$$
Untitled Document
  ChemDraw09191817102D

 30 33  0  0  0  0  0  0  0  0999 V2000
    1.5158    2.5883    0.0000 F   0  0  0  0  0  0  0  0  0  0  0  0
    1.5158    1.7633    0.0000 C   0  0  0  0  0  0  0  0  0  0  0  0
    0.8001    1.3508    0.0000 C   0  0  0  0  0  0  0  0  0  0  0  0
    0.0865    1.7633    0.0000 C   0  0  0  0  0  0  0  0  0  0  0  0
   -1.4292    1.7633    0.0000 C   0  0  0  0  0  0  0  0  0  0  0  0
   -1.4292    2.6378    0.0000 C   0  0  0  0  0  0  0  0  0  0  0  0
   -0.6681    3.0730    0.0000 N   0  0  0  0  0  0  0  0  0  0  0  0
    0.0865    2.6378    0.0000 N   0  0  0  0  0  0  0  0  0  0  0  0
   -2.1841    3.0730    0.0000 N   0  0  0  0  0  0  0  0  0  0  0  0
   -2.9431    2.6378    0.0000 C   0  0  0  0  0  0  0  0  0  0  0  0
   -2.9431    1.7633    0.0000 C   0  0  0  0  0  0  0  0  0  0  0  0
   -2.1841    1.3261    0.0000 C   0  0  0  0  0  0  0  0  0  0  0  0
    0.8001    0.5258    0.0000 N   0  0  0  0  0  0  0  0  0  0  0  0
    1.5158    0.1154    0.0000 C   0  0  0  0  0  0  0  0  0  0  0  0
    2.2295    0.5258    0.0000 C   0  0  0  0  0  0  0  0  0  0  0  0
    2.2295    1.3508    0.0000 C   0  0  0  0  0  0  0  0  0  0  0  0
    2.9431    0.1154    0.0000 Cl  0  0  0  0  0  0  0  0  0  0  0  0
    1.5158   -0.7100    0.0000 N   0  0  0  0  0  0  0  0  0  0  0  0
    0.8001   -1.1233    0.0000 C   0  0  0  0  0  0  0  0  0  0  0  0
    0.8001   -1.9477    0.0000 C   0  0  0  0  0  0  0  0  0  0  0  0
    0.0865   -2.3590    0.0000 C   0  0  0  0  0  0  0  0  0  0  0  0
   -0.6271   -1.9477    0.0000 C   0  0  0  0  0  0  0  0  0  0  0  0
   -1.3411   -2.3590    0.0000 C   0  0  0  0  0  0  0  0  0  0  0  0
   -0.6271   -1.1233    0.0000 C   0  0  0  0  0  0  0  0  0  0  0  0
   -0.3243   -3.0730    0.0000 C   0  0  0  0  0  0  0  0  0  0  0  0
    0.5011   -3.0730    0.0000 O   0  0  0  0  0  0  0  0  0  0  0  0
    1.5158   -2.3590    0.0000 N   0  0  0  0  0  0  0  0  0  0  0  0
    2.2295   -1.9477    0.0000 C   0  0  0  0  0  0  0  0  0  0  0  0
    2.2295   -1.1233    0.0000 C   0  0  0  0  0  0  0  0  0  0  0  0
    0.0865   -1.5346    0.0000 H   0  0  0  0  0  0  0  0  0  0  0  0
  1  2  1  0      
  2  3  2  0      
  2 16  1  0      
  3  4  1  0      
  3 13  1  0      
  4  5  1  0      
  4  8  2  0      
  5  6  1  0      
  5 12  2  0      
  6  7  1  0      
  6  9  2  0      
  8  7  1  0      
  9 10  1  0      
 11 10  2  0      
 12 11  1  0      
 13 14  2  0      
 15 14  1  0      
 14 18  1  0      
 16 15  2  0      
 15 17  1  0      
 18 19  1  0      
 18 29  1  0      
 19 20  1  0      
 20 21  1  0      
 20 27  1  0      
 20 30  1  1      
 21 22  1  0      
 21 25  1  1      
 21 26  1  6      
 22 23  1  0      
 22 24  1  0      
 28 27  1  0      
 29 28  1  0      
M  END

>  <RackCode>
HYCPK72336

>  <Cat. No.>
HY-112782

>  <Product Name>
VTX-27

>  <ROW>
A

>  <COLUMN>
15

>  <CAS No.>
1321924-70-2

>  <MWt>
418.90

>  <Target>
PKC

>  <Saltdate>
Free Base

>  <Smiles>
FC1=C(N=C(N2C[C@@](NCC2)([H])[C@](C)(O)C(C)C)C(Cl)=C1)C3=NNC4=NC=CC=C34

>  <Solvent>
DMSO Solution

>  <Batch No.>
135748

>  <Quantity>
10mM  * 50uL

>  <Pathway>
Epigenetics; TGF-beta/Smad

>  <Synonyms>


>  <Formula>
C20H24ClFN6O

>  <Research_Area>
Inflammation/Immunology

>  <Clinical_Information>
No Development Reported

>  <SUPPLIER>
MedChemExpress

$$$$
Untitled Document
  ChemDraw02042110382D

 30 32  0  0  0  0  0  0  0  0999 V2000
    1.4289   -0.2062    0.0000 C   0  0  0  0  0  0  0  0  0  0  0  0
    0.7145    0.2062    0.0000 C   0  0  0  0  0  0  0  0  0  0  0  0
    0.0000   -0.2062    0.0000 C   0  0  0  0  0  0  0  0  0  0  0  0
    0.7145    1.0313    0.0000 O   0  0  0  0  0  0  0  0  0  0  0  0
   -0.7145    0.2062    0.0000 O   0  0  0  0  0  0  0  0  0  0  0  0
   -1.4289   -0.2062    0.0000 C   0  0  0  0  0  0  0  0  0  0  0  0
   -1.4289   -1.0313    0.0000 C   0  0  0  0  0  0  0  0  0  0  0  0
   -2.1434   -1.4437    0.0000 C   0  0  0  0  0  0  0  0  0  0  0  0
   -2.8579   -1.0313    0.0000 C   0  0  0  0  0  0  0  0  0  0  0  0
   -2.8579   -0.2062    0.0000 C   0  0  0  0  0  0  0  0  0  0  0  0
   -2.1434    0.2062    0.0000 C   0  0  0  0  0  0  0  0  0  0  0  0
   -3.5724   -1.4437    0.0000 C   0  0  0  0  0  0  0  0  0  0  0  0
   -4.2868   -1.8563    0.0000 F   0  0  0  0  0  0  0  0  0  0  0  0
   -3.5724   -2.2687    0.0000 F   0  0  0  0  0  0  0  0  0  0  0  0
   -4.2868   -1.0313    0.0000 F   0  0  0  0  0  0  0  0  0  0  0  0
    2.1434    0.2062    0.0000 N   0  0  0  0  0  0  0  0  0  0  0  0
    2.1434    1.0313    0.0000 C   0  0  0  0  0  0  0  0  0  0  0  0
    2.8579    1.4437    0.0000 C   0  0  0  0  0  0  0  0  0  0  0  0
    3.5724    1.0313    0.0000 C   0  0  0  0  0  0  0  0  0  0  0  0
    4.2868    1.4437    0.0000 C   0  0  0  0  0  0  0  0  0  0  0  0
    4.2868    2.2687    0.0000 C   0  0  0  0  0  0  0  0  0  0  0  0
    3.5724    2.6812    0.0000 C   0  0  0  0  0  0  0  0  0  0  0  0
    2.8579    2.2687    0.0000 C   0  0  0  0  0  0  0  0  0  0  0  0
    2.8579   -0.2062    0.0000 C   0  0  0  0  0  0  0  0  0  0  0  0
    2.8579   -1.0313    0.0000 C   0  0  0  0  0  0  0  0  0  0  0  0
    3.5724   -1.4437    0.0000 C   0  0  0  0  0  0  0  0  0  0  0  0
    3.5724   -2.2687    0.0000 C   0  0  0  0  0  0  0  0  0  0  0  0
    2.8579   -2.6812    0.0000 C   0  0  0  0  0  0  0  0  0  0  0  0
    2.1434   -2.2687    0.0000 C   0  0  0  0  0  0  0  0  0  0  0  0
    2.1434   -1.4437    0.0000 C   0  0  0  0  0  0  0  0  0  0  0  0
  1  2  1  0      
  2  3  1  0      
  2  4  1  0      
  6  7  1  0      
  7  8  2  0      
  8  9  1  0      
  9 10  2  0      
 10 11  1  0      
  6 11  2  0      
  5  6  1  0      
 12 13  1  0      
 12 14  1  0      
 12 15  1  0      
  9 12  1  0      
  3  5  1  0      
 18 19  1  0      
 19 20  2  0      
 20 21  1  0      
 21 22  2  0      
 22 23  1  0      
 18 23  2  0      
 17 18  1  0      
 16 17  1  0      
 25 26  1  0      
 26 27  2  0      
 27 28  1  0      
 28 29  2  0      
 29 30  1  0      
 25 30  2  0      
 24 25  1  0      
 16 24  1  0      
  1 16  1  0      
M  END

>  <RackCode>
HYCPK72336

>  <Cat. No.>
HY-134656

>  <Product Name>
BC1618

>  <ROW>
B

>  <COLUMN>
15

>  <CAS No.>
2222094-18-8

>  <MWt>
415.45

>  <Target>
AMPK; E1/E2/E3 Enzyme; Mitophagy

>  <Saltdate>
Free Base

>  <Smiles>
OC(COC1=CC=C(C(F)(F)F)C=C1)CN(CC2=CC=CC=C2)CC3=CC=CC=C3

>  <Solvent>
DMSO Solution

>  <Batch No.>
98374

>  <Quantity>
10mM  * 50uL

>  <Pathway>
Autophagy; Epigenetics; Metabolic Enzyme/Protease; PI3K/Akt/mTOR

>  <Synonyms>


>  <Formula>
C24H24F3NO2

>  <Research_Area>
Metabolic Disease; Inflammation/Immunology

>  <Clinical_Information>
No Development Reported

>  <SUPPLIER>
MedChemExpress

$$$$
Untitled Document
  ChemDraw10102209152D

 34 37  0  0  0  0  0  0  0  0999 V2000
    3.1779    1.3540    0.0000 C   0  0  0  0  0  0  0  0  0  0  0  0
    3.8923    0.9414    0.0000 N   0  0  0  0  0  0  0  0  0  0  0  0
    3.8923    0.1165    0.0000 C   0  0  0  0  0  0  0  0  0  0  0  0
    3.1779   -0.2960    0.0000 C   0  0  0  0  0  0  0  0  0  0  0  0
    2.4634    0.1165    0.0000 C   0  0  0  0  0  0  0  0  0  0  0  0
    1.7489   -0.2960    0.0000 C   0  0  0  0  0  0  0  0  0  0  0  0
    1.0345    0.1165    0.0000 C   0  0  0  0  0  0  0  0  0  0  0  0
    1.0345    0.9414    0.0000 C   0  0  0  0  0  0  0  0  0  0  0  0
    1.7489    1.3540    0.0000 C   0  0  0  0  0  0  0  0  0  0  0  0
    2.4634    0.9414    0.0000 C   0  0  0  0  0  0  0  0  0  0  0  0
    0.3200   -0.2960    0.0000 O   0  0  0  0  0  0  0  0  0  0  0  0
    0.3200   -1.1210    0.0000 C   0  0  0  0  0  0  0  0  0  0  0  0
   -0.4337    1.0184    0.0000 C   0  0  0  0  0  0  0  0  0  0  0  0
   -0.6886    0.2338    0.0000 C   0  0  0  0  0  0  0  0  0  0  0  0
   -1.4956    0.0622    0.0000 C   0  0  0  0  0  0  0  0  0  0  0  0
   -2.0476    0.6753    0.0000 C   0  0  0  0  0  0  0  0  0  0  0  0
   -1.7926    1.4599    0.0000 C   0  0  0  0  0  0  0  0  0  0  0  0
   -0.9857    1.6314    0.0000 N   0  0  0  0  0  0  0  0  0  0  0  0
   -0.5732    2.3459    0.0000 N   0  0  0  0  0  0  0  0  0  0  0  0
    0.2338    2.1744    0.0000 C   0  0  0  0  0  0  0  0  0  0  0  0
    0.3200    1.3540    0.0000 C   0  0  0  0  0  0  0  0  0  0  0  0
   -2.8124   -1.6785    0.0000 C   0  0  0  0  0  0  0  0  0  0  0  0
   -2.5574   -0.8939    0.0000 C   0  0  0  0  0  0  0  0  0  0  0  0
   -1.7504   -0.7223    0.0000 C   0  0  0  0  0  0  0  0  0  0  0  0
   -1.1984   -1.3354    0.0000 C   0  0  0  0  0  0  0  0  0  0  0  0
   -1.4534   -2.1200    0.0000 C   0  0  0  0  0  0  0  0  0  0  0  0
   -2.2603   -2.2915    0.0000 N   0  0  0  0  0  0  0  0  0  0  0  0
   -3.6374   -1.6785    0.0000 N   0  0  0  0  0  0  0  0  0  0  0  0
   -3.2248   -0.4089    0.0000 C   0  0  0  0  0  0  0  0  0  0  0  0
   -3.8923   -0.8939    0.0000 C   0  0  0  0  0  0  0  0  0  0  0  0
    2.1722   -1.8041    0.0000 C   0  0  0  0  0  0  0  0  0  0  0  0
    2.8867   -2.2166    0.0000 O   0  0  0  0  0  0  0  0  0  0  0  0
    1.4577   -2.2166    0.0000 O   0  0  0  0  0  0  0  0  0  0  0  0
   -0.0390   -2.3459    0.0000 C   0  0  0  0  0  0  0  0  0  0  0  0
  1  2  1  0      
  2  3  1  0      
  3  4  1  0      
  4  5  1  0      
  5  6  1  0      
  6  7  2  0      
  7  8  1  0      
  8  9  2  0      
  9 10  1  0      
  1 10  1  0      
  5 10  2  0      
 11 12  1  0      
  7 11  1  0      
 13 14  1  0      
 14 15  2  0      
 15 16  1  0      
 16 17  2  0      
 17 18  1  0      
 13 18  1  0      
 19 20  2  0      
 20 21  1  0      
 19 18  1  0      
 21 13  2  0      
 22 23  1  0      
 23 24  2  0      
 24 25  1  0      
 25 26  2  0      
 26 27  1  0      
 22 27  2  0      
 29 30  2  0      
 28 30  1  0      
 28 22  1  0      
 29 23  1  0      
 15 24  1  0      
  8 21  1  0      
 31 32  1  0      
 31 33  2  0      
A   34
0.15
M  END

>  <RackCode>
HYCPK72336

>  <Cat. No.>
HY-122858A

>  <Product Name>
PKCiota-IN-2 (formic)

>  <ROW>
C

>  <COLUMN>
15

>  <CAS No.>


>  <MWt>
402.36

>  <Target>
PKC

>  <Saltdate>
Formic

>  <Smiles>
COC1=CC2=C(CNCC2)C=C1C3=C4C=C(C5=C6C(NC=C6)=NC=C5)C=CN4N=C3.OC=O

>  <Solvent>
DMSO Solution

>  <Batch No.>
232319

>  <Quantity>
10mM  * 50uL

>  <Pathway>
Epigenetics; TGF-beta/Smad

>  <Synonyms>


>  <Formula>
C24H21N5O.0.15CH2O2

>  <Research_Area>
Cancer

>  <Clinical_Information>
No Development Reported

>  <SUPPLIER>
MedChemExpress

$$$$
Untitled Document
  ChemDraw01131709142D

 20 22  0  0  0  0  0  0  0  0999 V2000
   -3.5723    1.4438    0.0000 C   0  0  0  0  0  0  0  0  0  0  0  0
   -3.5723    0.6188    0.0000 C   0  0  0  0  0  0  0  0  0  0  0  0
   -2.8578    0.2063    0.0000 C   0  0  0  0  0  0  0  0  0  0  0  0
   -2.1433    0.6188    0.0000 C   0  0  0  0  0  0  0  0  0  0  0  0
   -2.1433    1.4438    0.0000 C   0  0  0  0  0  0  0  0  0  0  0  0
   -2.8578    1.8562    0.0000 C   0  0  0  0  0  0  0  0  0  0  0  0
   -1.4289    0.2063    0.0000 C   0  0  0  0  0  0  0  0  0  0  0  0
   -0.7145    0.6188    0.0000 N   0  0  0  0  0  0  0  0  0  0  0  0
   -0.0000    0.2063    0.0000 C   0  0  0  0  0  0  0  0  0  0  0  0
   -0.0000   -0.6188    0.0000 N   0  0  0  0  0  0  0  0  0  0  0  0
    0.7145   -1.0312    0.0000 C   0  0  0  0  0  0  0  0  0  0  0  0
    1.4289   -0.6188    0.0000 C   0  0  0  0  0  0  0  0  0  0  0  0
    1.4289    0.2063    0.0000 C   0  0  0  0  0  0  0  0  0  0  0  0
    0.7145    0.6188    0.0000 N   0  0  0  0  0  0  0  0  0  0  0  0
    2.1433   -1.0313    0.0000 C   0  0  0  0  0  0  0  0  0  0  0  0
    2.1433   -1.8562    0.0000 O   0  0  0  0  0  0  0  0  0  0  0  0
    2.8578   -0.6188    0.0000 N   0  0  0  0  0  0  0  0  0  0  0  0
    3.5723   -1.0313    0.0000 O   0  0  0  0  0  0  0  0  0  0  0  0
   -1.8413   -0.5082    0.0000 C   0  0  0  0  0  0  0  0  0  0  0  0
   -1.0164   -0.5082    0.0000 C   0  0  0  0  0  0  0  0  0  0  0  0
  1  2  2  0      
  2  3  1  0      
  3  4  2  0      
  4  5  1  0      
  5  6  2  0      
  6  1  1  0      
  4  7  1  0      
  7  8  1  0      
  8  9  1  0      
  9 10  2  0      
 10 11  1  0      
 11 12  2  0      
 12 13  1  0      
 13 14  2  0      
 14  9  1  0      
 12 15  1  0      
 15 16  2  0      
 15 17  1  0      
 17 18  1  0      
  7 19  1  0      
 19 20  1  0      
 20  7  1  0      
M  END

>  <RackCode>
HYCPK72336

>  <Cat. No.>
HY-19327

>  <Product Name>
ACY-738

>  <ROW>
D

>  <COLUMN>
15

>  <CAS No.>
1375465-91-0

>  <MWt>
270.29

>  <Target>
HDAC

>  <Saltdate>


>  <Smiles>
O=C(NO)C(C=N1)=CN=C1NC2(CC2)C3=CC=CC=C3

>  <Solvent>
DMSO Solution

>  <Batch No.>
126919

>  <Quantity>
10mM  * 50uL

>  <Pathway>
Cell Cycle/DNA Damage; Epigenetics

>  <Synonyms>


>  <Formula>
C14H14N4O2

>  <Research_Area>
Cancer

>  <Clinical_Information>
No Development Reported

>  <SUPPLIER>
MedChemExpress

$$$$
Untitled Document
  ChemDraw12081612522D

 36 39  0  0  0  0  0  0  0  0999 V2000
    1.0717   -0.4125    0.0000 N   0  0  0  0  0  0  0  0  0  0  0  0
    1.0717    0.4125    0.0000 C   0  0  0  0  0  0  0  0  0  0  0  0
    0.3572    0.8250    0.0000 N   0  0  0  0  0  0  0  0  0  0  0  0
   -0.3572    0.4125    0.0000 C   0  0  0  0  0  0  0  0  0  0  0  0
   -0.3572   -0.4125    0.0000 C   0  0  0  0  0  0  0  0  0  0  0  0
    0.3572   -0.8250    0.0000 C   0  0  0  0  0  0  0  0  0  0  0  0
   -1.0717    0.8250    0.0000 N   0  0  0  0  0  0  0  0  0  0  0  0
   -1.7861    0.4125    0.0000 C   0  0  0  0  0  0  0  0  0  0  0  0
   -2.5005    0.8250    0.0000 C   0  0  0  0  0  0  0  0  0  0  0  0
   -2.5005    1.6500    0.0000 C   0  0  0  0  0  0  0  0  0  0  0  0
   -3.2150    2.0624    0.0000 C   0  0  0  0  0  0  0  0  0  0  0  0
   -3.9295    1.6500    0.0000 C   0  0  0  0  0  0  0  0  0  0  0  0
   -3.9295    0.8250    0.0000 C   0  0  0  0  0  0  0  0  0  0  0  0
   -3.2150    0.4125    0.0000 C   0  0  0  0  0  0  0  0  0  0  0  0
   -4.6440    0.4125    0.0000 N   0  0  0  0  0  0  0  0  0  0  0  0
   -5.3583    0.8250    0.0000 C   0  0  0  0  0  0  0  0  0  0  0  0
   -5.3583    1.6500    0.0000 O   0  0  0  0  0  0  0  0  0  0  0  0
   -6.0728    0.4125    0.0000 C   0  0  0  0  0  0  0  0  0  0  0  0
   -6.7873    0.8250    0.0000 C   0  0  0  0  0  0  0  0  0  0  0  0
   -1.0717   -0.8250    0.0000 Cl  0  0  0  0  0  0  0  0  0  0  0  0
    1.7861    0.8250    0.0000 N   0  0  0  0  0  0  0  0  0  0  0  0
    2.5005    0.4125    0.0000 C   0  0  0  0  0  0  0  0  0  0  0  0
    2.5005   -0.4125    0.0000 C   0  0  0  0  0  0  0  0  0  0  0  0
    3.2150   -0.8250    0.0000 C   0  0  0  0  0  0  0  0  0  0  0  0
    3.9295   -0.4125    0.0000 C   0  0  0  0  0  0  0  0  0  0  0  0
    3.9295    0.4125    0.0000 C   0  0  0  0  0  0  0  0  0  0  0  0
    3.2150    0.8250    0.0000 C   0  0  0  0  0  0  0  0  0  0  0  0
    1.7861   -0.8250    0.0000 O   0  0  0  0  0  0  0  0  0  0  0  0
    1.7861   -1.6500    0.0000 C   0  0  0  0  0  0  0  0  0  0  0  0
    4.6440   -0.8250    0.0000 N   0  0  0  0  0  0  0  0  0  0  0  0
    4.6440   -1.6500    0.0000 C   0  0  0  0  0  0  0  0  0  0  0  0
    5.3583   -2.0624    0.0000 C   0  0  0  0  0  0  0  0  0  0  0  0
    6.0728   -1.6500    0.0000 N   0  0  0  0  0  0  0  0  0  0  0  0
    6.0728   -0.8250    0.0000 C   0  0  0  0  0  0  0  0  0  0  0  0
    5.3583   -0.4125    0.0000 C   0  0  0  0  0  0  0  0  0  0  0  0
    6.7873   -2.0624    0.0000 C   0  0  0  0  0  0  0  0  0  0  0  0
  1  2  2  0      
  2  3  1  0      
  3  4  2  0      
  4  5  1  0      
  5  6  2  0      
  6  1  1  0      
  4  7  1  0      
  7  8  1  0      
  8  9  1  0      
  9 10  2  0      
 10 11  1  0      
 11 12  2  0      
 12 13  1  0      
 13 14  2  0      
 14  9  1  0      
 13 15  1  0      
 15 16  1  0      
 16 17  2  0      
 16 18  1  0      
 18 19  2  0      
  5 20  1  0      
  2 21  1  0      
 21 22  1  0      
 22 23  2  0      
 23 24  1  0      
 24 25  2  0      
 25 26  1  0      
 26 27  2  0      
 27 22  1  0      
 23 28  1  0      
 28 29  1  0      
 25 30  1  0      
 30 31  1  0      
 31 32  1  0      
 32 33  1  0      
 33 34  1  0      
 34 35  1  0      
 35 30  1  0      
 33 36  1  0      
M  END

>  <RackCode>
HYCPK72336

>  <Cat. No.>
HY-19544

>  <Product Name>
JAK3-IN-1

>  <ROW>
E

>  <COLUMN>
15

>  <CAS No.>
1805787-93-2

>  <MWt>
508.02

>  <Target>
JAK

>  <Saltdate>
Free Base

>  <Smiles>
O=C(C=C)NC1=CC(CNC2=NC(NC3=C(OC)C=C(N4CCN(C)CC4)C=C3)=NC=C2Cl)=CC=C1

>  <Solvent>
DMSO Solution

>  <Batch No.>
19748

>  <Quantity>
10mM  * 50uL

>  <Pathway>
Epigenetics; JAK/STAT Signaling; Protein Tyrosine Kinase/RTK; Stem Cell/Wnt

>  <Synonyms>


>  <Formula>
C26H30ClN7O2

>  <Research_Area>
Cancer

>  <Clinical_Information>
No Development Reported

>  <SUPPLIER>
MedChemExpress

$$$$
Untitled Document
  ChemDraw01091710552D

 29 32  0  0  0  0  0  0  0  0999 V2000
    0.7764    1.0013    0.0000 C   0  0  0  0  0  0  0  0  0  0  0  0
    1.5969    0.9151    0.0000 C   0  0  0  0  0  0  0  0  0  0  0  0
    0.4408    1.7550    0.0000 O   0  0  0  0  0  0  0  0  0  0  0  0
    0.2915    0.3339    0.0000 N   0  0  0  0  0  0  0  0  0  0  0  0
   -1.0810   -0.1930    0.0000 S   0  0  0  0  0  0  0  0  0  0  0  0
   -0.5290    0.4201    0.0000 C   0  0  0  0  0  0  0  0  0  0  0  0
   -0.9415    1.1346    0.0000 N   0  0  0  0  0  0  0  0  0  0  0  0
   -1.7485    0.9631    0.0000 C   0  0  0  0  0  0  0  0  0  0  0  0
   -1.8347    0.1426    0.0000 C   0  0  0  0  0  0  0  0  0  0  0  0
   -2.5492   -0.2699    0.0000 C   0  0  0  0  0  0  0  0  0  0  0  0
   -2.5492   -1.0949    0.0000 C   0  0  0  0  0  0  0  0  0  0  0  0
   -1.8347   -1.5074    0.0000 C   0  0  0  0  0  0  0  0  0  0  0  0
   -1.8347   -2.3324    0.0000 C   0  0  0  0  0  0  0  0  0  0  0  0
   -2.5492   -2.7448    0.0000 C   0  0  0  0  0  0  0  0  0  0  0  0
   -3.2636   -2.3324    0.0000 C   0  0  0  0  0  0  0  0  0  0  0  0
   -3.9780   -2.7448    0.0000 C   0  0  0  0  0  0  0  0  0  0  0  0
   -4.6925   -2.3324    0.0000 C   0  0  0  0  0  0  0  0  0  0  0  0
   -4.6925   -1.5074    0.0000 C   0  0  0  0  0  0  0  0  0  0  0  0
   -3.9780   -1.0949    0.0000 C   0  0  0  0  0  0  0  0  0  0  0  0
   -3.2636   -1.5074    0.0000 C   0  0  0  0  0  0  0  0  0  0  0  0
    2.0818    1.5825    0.0000 S   0  0  0  0  0  0  0  0  0  0  0  0
    2.9022    1.4963    0.0000 C   0  0  0  0  0  0  0  0  0  0  0  0
    3.2377    0.7426    0.0000 N   0  0  0  0  0  0  0  0  0  0  0  0
    4.0582    0.6564    0.0000 C   0  0  0  0  0  0  0  0  0  0  0  0
    4.5431    1.3238    0.0000 C   0  0  0  0  0  0  0  0  0  0  0  0
    4.2076    2.0775    0.0000 C   0  0  0  0  0  0  0  0  0  0  0  0
    3.3871    2.1637    0.0000 N   0  0  0  0  0  0  0  0  0  0  0  0
    4.6925    2.7448    0.0000 C   0  0  0  0  0  0  0  0  0  0  0  0
    4.3938   -0.0973    0.0000 C   0  0  0  0  0  0  0  0  0  0  0  0
  1  2  1  0      
  1  3  2  0      
  1  4  1  0      
  5  6  1  0      
  6  7  2  0      
  7  8  1  0      
  8  9  2  0      
  5  9  1  0      
 11 12  1  0      
 12 13  2  0      
 13 14  1  0      
 14 15  2  0      
 15 16  1  0      
 16 17  2  0      
 17 18  1  0      
 18 19  2  0      
 19 20  1  0      
 11 20  2  0      
 15 20  1  0      
 10 11  1  0      
  9 10  1  0      
  4  6  1  0      
 22 23  1  0      
 23 24  2  0      
 24 25  1  0      
 25 26  2  0      
 26 27  1  0      
 22 27  2  0      
 26 28  1  0      
 24 29  1  0      
 21 22  1  0      
  2 21  1  0      
M  END

>  <RackCode>
HYCPK72336

>  <Cat. No.>
HY-100591

>  <Product Name>
SirReal2

>  <ROW>
F

>  <COLUMN>
15

>  <CAS No.>
709002-46-0

>  <MWt>
420.55

>  <Target>
Sirtuin

>  <Saltdate>
Free Base

>  <Smiles>
O=C(NC1=NC=C(CC2=C3C=CC=CC3=CC=C2)S1)CSC4=NC(C)=CC(C)=N4

>  <Solvent>
DMSO Solution

>  <Batch No.>
103928

>  <Quantity>
10mM  * 50uL

>  <Pathway>
Cell Cycle/DNA Damage; Epigenetics

>  <Synonyms>


>  <Formula>
C22H20N4OS2

>  <Research_Area>
Cancer; Inflammation/Immunology; Neurological Disease

>  <Clinical_Information>
No Development Reported

>  <SUPPLIER>
MedChemExpress

$$$$
Untitled Document
  ChemDraw08242416492D

 59 65  0  0  0  0  0  0  0  0999 V2000
   -4.7801    4.3825    0.0000 N   0  0  0  0  0  0  0  0  0  0  0  0
   -3.9758    4.1989    0.0000 C   0  0  0  0  0  0  0  0  0  0  0  0
   -3.6178    3.4556    0.0000 C   0  0  0  0  0  0  0  0  0  0  0  0
   -3.9758    2.7123    0.0000 N   0  0  0  0  0  0  0  0  0  0  0  0
   -4.7801    2.5287    0.0000 C   0  0  0  0  0  0  0  0  0  0  0  0
   -5.4251    3.0431    0.0000 C   0  0  0  0  0  0  0  0  0  0  0  0
   -5.4251    3.8681    0.0000 C   0  0  0  0  0  0  0  0  0  0  0  0
   -4.0955    5.5284    0.0000 N   0  0  0  0  0  0  0  0  0  0  0  0
   -3.5527    4.9071    0.0000 N   0  0  0  0  0  0  0  0  0  0  0  0
   -4.8541    5.2042    0.0000 C   0  0  0  0  0  0  0  0  0  0  0  0
   -6.2097    2.7882    0.0000 C   0  0  0  0  0  0  0  0  0  0  0  0
   -6.6947    3.4556    0.0000 C   0  0  0  0  0  0  0  0  0  0  0  0
   -6.2097    4.1230    0.0000 S   0  0  0  0  0  0  0  0  0  0  0  0
   -2.3803    2.7411    0.0000 C   0  0  0  0  0  0  0  0  0  0  0  0
   -2.7928    3.4556    0.0000 C   0  0  0  0  0  0  0  0  0  0  0  0
   -2.7928    2.0267    0.0000 O   0  0  0  0  0  0  0  0  0  0  0  0
   -1.5553    2.7411    0.0000 N   0  0  0  0  0  0  0  0  0  0  0  0
   -5.5685    5.6167    0.0000 C   0  0  0  0  0  0  0  0  0  0  0  0
   -6.4647    2.0035    0.0000 C   0  0  0  0  0  0  0  0  0  0  0  0
   -7.5197    3.4556    0.0000 C   0  0  0  0  0  0  0  0  0  0  0  0
   -1.1428    2.0267    0.0000 C   0  0  0  0  0  0  0  0  0  0  0  0
   -0.3178    2.0267    0.0000 C   0  0  0  0  0  0  0  0  0  0  0  0
    0.0947    1.3122    0.0000 C   0  0  0  0  0  0  0  0  0  0  0  0
    0.9197    1.3122    0.0000 C   0  0  0  0  0  0  0  0  0  0  0  0
    1.3322    0.5977    0.0000 C   0  0  0  0  0  0  0  0  0  0  0  0
    2.1572    0.5977    0.0000 C   0  0  0  0  0  0  0  0  0  0  0  0
    2.5697   -0.1168    0.0000 C   0  0  0  0  0  0  0  0  0  0  0  0
    3.3947   -0.1168    0.0000 C   0  0  0  0  0  0  0  0  0  0  0  0
    3.8072   -0.8312    0.0000 N   0  0  0  0  0  0  0  0  0  0  0  0
    4.6322   -0.8312    0.0000 C   0  0  0  0  0  0  0  0  0  0  0  0
    5.0447   -0.1168    0.0000 O   0  0  0  0  0  0  0  0  0  0  0  0
    5.0447   -1.5457    0.0000 C   0  0  0  0  0  0  0  0  0  0  0  0
    5.8697   -1.5457    0.0000 O   0  0  0  0  0  0  0  0  0  0  0  0
    5.7301   -4.3022    0.0000 C   0  0  0  0  0  0  0  0  0  0  0  0
    4.9765   -3.9667    0.0000 N   0  0  0  0  0  0  0  0  0  0  0  0
    5.0627   -3.1462    0.0000 C   0  0  0  0  0  0  0  0  0  0  0  0
    5.8697   -2.9746    0.0000 C   0  0  0  0  0  0  0  0  0  0  0  0
    6.2822   -2.2602    0.0000 C   0  0  0  0  0  0  0  0  0  0  0  0
    7.1072   -2.2602    0.0000 C   0  0  0  0  0  0  0  0  0  0  0  0
    7.5197   -2.9746    0.0000 C   0  0  0  0  0  0  0  0  0  0  0  0
    7.1072   -3.6891    0.0000 C   0  0  0  0  0  0  0  0  0  0  0  0
    6.2822   -3.6891    0.0000 C   0  0  0  0  0  0  0  0  0  0  0  0
    4.4496   -2.5941    0.0000 O   0  0  0  0  0  0  0  0  0  0  0  0
    5.9017   -5.1092    0.0000 O   0  0  0  0  0  0  0  0  0  0  0  0
    3.5475   -5.6167    0.0000 N   0  0  0  0  0  0  0  0  0  0  0  0
    4.2620   -5.2042    0.0000 C   0  0  0  0  0  0  0  0  0  0  0  0
    4.2620   -4.3792    0.0000 C   0  0  0  0  0  0  0  0  0  0  0  0
    3.5475   -3.9667    0.0000 C   0  0  0  0  0  0  0  0  0  0  0  0
    2.8330   -4.3792    0.0000 C   0  0  0  0  0  0  0  0  0  0  0  0
    2.8330   -5.2042    0.0000 C   0  0  0  0  0  0  0  0  0  0  0  0
    2.1186   -5.6167    0.0000 O   0  0  0  0  0  0  0  0  0  0  0  0
    4.9765   -5.6167    0.0000 O   0  0  0  0  0  0  0  0  0  0  0  0
   -4.9637    1.7244    0.0000 C   0  0  0  0  0  0  0  0  0  0  0  0
   -4.3589    1.1633    0.0000 C   0  0  0  0  0  0  0  0  0  0  0  0
   -4.5425    0.3589    0.0000 C   0  0  0  0  0  0  0  0  0  0  0  0
   -5.3308    0.1158    0.0000 C   0  0  0  0  0  0  0  0  0  0  0  0
   -5.9356    0.6769    0.0000 C   0  0  0  0  0  0  0  0  0  0  0  0
   -5.7520    1.4812    0.0000 C   0  0  0  0  0  0  0  0  0  0  0  0
   -5.5144   -0.6885    0.0000 Cl  0  0  0  0  0  0  0  0  0  0  0  0
  1  2  1  0      
  2  3  1  0      
  3  4  1  0      
  4  5  2  0      
  5  6  1  0      
  6  7  2  0      
  1  7  1  0      
  8  9  1  0      
  8 10  2  0      
 10  1  1  0      
  9  2  2  0      
 11 12  2  0      
 12 13  1  0      
 11  6  1  0      
 13  7  1  0      
 14 15  1  0      
 14 16  2  0      
 14 17  1  0      
  3 15  1  6      
 10 18  1  0      
 11 19  1  0      
 12 20  1  0      
 21 22  1  0      
 22 23  1  0      
 23 24  1  0      
 24 25  1  0      
 25 26  1  0      
 26 27  1  0      
 27 28  1  0      
 30 31  2  0      
 30 32  1  0      
 34 35  1  0      
 35 36  1  0      
 36 37  1  0      
 37 38  1  0      
 38 39  2  0      
 39 40  1  0      
 40 41  2  0      
 41 42  1  0      
 34 42  1  0      
 37 42  2  0      
 36 43  2  0      
 34 44  2  0      
 45 46  1  0      
 46 47  1  0      
 47 48  1  0      
 48 49  1  0      
 49 50  1  0      
 45 50  1  0      
 50 51  2  0      
 46 52  2  0      
 35 47  1  0      
 33 38  1  0      
 32 33  1  0      
 29 30  1  0      
 28 29  1  0      
 17 21  1  0      
 53 54  1  0      
 54 55  2  0      
 55 56  1  0      
 56 57  2  0      
 57 58  1  0      
 53 58  2  0      
 56 59  1  0      
  5 53  1  0      
M  END

>  <RackCode>
HYCPK72336

>  <Cat. No.>
HY-112588

>  <Product Name>
dBET6

>  <ROW>
G

>  <COLUMN>
15

>  <CAS No.>
1950634-92-0

>  <MWt>
841.37

>  <Target>
Apoptosis; Epigenetic Reader Domain; PROTACs

>  <Saltdate>
Free Base

>  <Smiles>
O=C(NCCCCCCCCNC(COC1=CC=CC(C(N2C(CC3)C(NC3=O)=O)=O)=C1C2=O)=O)C[C@H]4C5=NN=C(C)N5C6=C(C(C)=C(C)S6)C(C7=CC=C(Cl)C=C7)=N4

>  <Solvent>
DMSO Solution

>  <Batch No.>
113183

>  <Quantity>
10mM  * 50uL

>  <Pathway>
Apoptosis; Epigenetics; PROTAC

>  <Synonyms>


>  <Formula>
C42H45ClN8O7S

>  <Research_Area>
Cancer

>  <Clinical_Information>
No Development Reported

>  <SUPPLIER>
MedChemExpress

$$$$
Untitled Document
  ChemDraw01201615142D

 42 46  0  0  0  0  0  0  0  0999 V2000
   -4.2809    3.9112    0.0000 C   0  0  0  0  0  0  0  0  0  0  0  0
   -4.2809    3.0861    0.0000 C   0  0  0  0  0  0  0  0  0  0  0  0
   -3.5665    2.6736    0.0000 C   0  0  0  0  0  0  0  0  0  0  0  0
   -2.8519    3.0861    0.0000 C   0  0  0  0  0  0  0  0  0  0  0  0
   -2.8519    3.9112    0.0000 C   0  0  0  0  0  0  0  0  0  0  0  0
   -3.5665    4.3237    0.0000 N   0  0  0  0  0  0  0  0  0  0  0  0
   -2.1399    4.3222    0.0000 O   0  0  0  0  0  0  0  0  0  0  0  0
   -4.9930    4.3222    0.0000 C   0  0  0  0  0  0  0  0  0  0  0  0
   -3.5665    1.8513    0.0000 C   0  0  0  0  0  0  0  0  0  0  0  0
   -4.2784    1.4403    0.0000 C   0  0  0  0  0  0  0  0  0  0  0  0
   -4.2784    0.6180    0.0000 C   0  0  0  0  0  0  0  0  0  0  0  0
   -2.1399    2.6750    0.0000 C   0  0  0  0  0  0  0  0  0  0  0  0
   -2.1399    1.8528    0.0000 N   0  0  0  0  0  0  0  0  0  0  0  0
   -1.4278    1.4417    0.0000 C   0  0  0  0  0  0  0  0  0  0  0  0
   -1.4278    0.6195    0.0000 C   0  0  0  0  0  0  0  0  0  0  0  0
   -0.7158    1.8528    0.0000 O   0  0  0  0  0  0  0  0  0  0  0  0
   -2.1424    0.2070    0.0000 C   0  0  0  0  0  0  0  0  0  0  0  0
   -2.1424   -0.6180    0.0000 C   0  0  0  0  0  0  0  0  0  0  0  0
   -1.4278   -1.0306    0.0000 C   0  0  0  0  0  0  0  0  0  0  0  0
   -0.7133   -0.6180    0.0000 C   0  0  0  0  0  0  0  0  0  0  0  0
   -0.7133    0.2070    0.0000 C   0  0  0  0  0  0  0  0  0  0  0  0
   -2.9270    0.4619    0.0000 C   0  0  0  0  0  0  0  0  0  0  0  0
   -3.4120   -0.2055    0.0000 N   0  0  0  0  0  0  0  0  0  0  0  0
   -2.9270   -0.8731    0.0000 N   0  0  0  0  0  0  0  0  0  0  0  0
   -3.1810   -1.6550    0.0000 C   0  0  0  0  0  0  0  0  0  0  0  0
   -2.6309   -2.2660    0.0000 C   0  0  0  0  0  0  0  0  0  0  0  0
   -3.9853   -1.8259    0.0000 C   0  0  0  0  0  0  0  0  0  0  0  0
   -0.0012   -1.0292    0.0000 C   0  0  0  0  0  0  0  0  0  0  0  0
   -0.0012   -1.8542    0.0000 C   0  0  0  0  0  0  0  0  0  0  0  0
    0.7133   -2.2668    0.0000 N   0  0  0  0  0  0  0  0  0  0  0  0
    1.4278   -1.8542    0.0000 C   0  0  0  0  0  0  0  0  0  0  0  0
    1.4278   -1.0292    0.0000 C   0  0  0  0  0  0  0  0  0  0  0  0
    0.7133   -0.6166    0.0000 C   0  0  0  0  0  0  0  0  0  0  0  0
    2.1399   -2.2654    0.0000 N   0  0  0  0  0  0  0  0  0  0  0  0
    2.1399   -3.0904    0.0000 C   0  0  0  0  0  0  0  0  0  0  0  0
    2.8544   -3.5030    0.0000 C   0  0  0  0  0  0  0  0  0  0  0  0
    3.5689   -3.0904    0.0000 N   0  0  0  0  0  0  0  0  0  0  0  0
    3.5689   -2.2654    0.0000 C   0  0  0  0  0  0  0  0  0  0  0  0
    2.8544   -1.8528    0.0000 C   0  0  0  0  0  0  0  0  0  0  0  0
    4.2809   -3.5015    0.0000 C   0  0  0  0  0  0  0  0  0  0  0  0
    4.9930   -3.0904    0.0000 C   0  0  0  0  0  0  0  0  0  0  0  0
    4.2809   -4.3237    0.0000 C   0  0  0  0  0  0  0  0  0  0  0  0
  1  2  2  0      
  2  3  1  0      
  3  4  2  0      
  4  5  1  0      
  5  6  1  0      
  6  1  1  0      
  5  7  2  0      
  1  8  1  0      
  3  9  1  0      
  9 10  1  0      
 10 11  1  0      
  4 12  1  0      
 12 13  1  0      
 13 14  1  0      
 14 15  1  0      
 14 16  2  0      
 15 17  2  0      
 17 18  1  0      
 18 19  2  0      
 19 20  1  0      
 20 21  2  0      
 21 15  1  0      
 17 22  1  0      
 22 23  2  0      
 23 24  1  0      
 24 18  1  0      
 24 25  1  0      
 25 26  1  0      
 25 27  1  0      
 20 28  1  0      
 28 29  2  0      
 29 30  1  0      
 30 31  2  0      
 31 32  1  0      
 32 33  2  0      
 33 28  1  0      
 31 34  1  0      
 34 35  1  0      
 35 36  1  0      
 36 37  1  0      
 37 38  1  0      
 38 39  1  0      
 39 34  1  0      
 37 40  1  0      
 40 41  1  0      
 40 42  1  0      
M  END

>  <RackCode>
HYCPK72336

>  <Cat. No.>
HY-15646

>  <Product Name>
UNC1999

>  <ROW>
H

>  <COLUMN>
15

>  <CAS No.>
1431612-23-5

>  <MWt>
569.74

>  <Target>
Autophagy; Histone Methyltransferase

>  <Saltdate>
Free Base

>  <Smiles>
O=C1C(CNC(C2=C(C=NN3C(C)C)C3=CC(C4=CN=C(N5CCN(C(C)C)CC5)C=C4)=C2)=O)=C(CCC)C=C(C)N1

>  <Solvent>
DMSO Solution

>  <Batch No.>
97520

>  <Quantity>
10mM  * 50uL

>  <Pathway>
Autophagy; Epigenetics

>  <Synonyms>


>  <Formula>
C33H43N7O2

>  <Research_Area>
Cancer

>  <Clinical_Information>
No Development Reported

>  <SUPPLIER>
MedChemExpress

$$$$
Untitled Document
  ChemDraw01131617042D

 24 26  0  0  0  0  0  0  0  0999 V2000
   -2.0413    0.5243    0.0000 C   0  0  0  0  0  0  0  0  0  0  0  0
   -1.3268    0.9368    0.0000 S   0  0  0  0  0  0  0  0  0  0  0  0
   -0.9144    0.2223    0.0000 O   0  0  0  0  0  0  0  0  0  0  0  0
   -1.7393    1.6512    0.0000 O   0  0  0  0  0  0  0  0  0  0  0  0
   -0.6125    1.3493    0.0000 N   0  0  0  0  0  0  0  0  0  0  0  0
    2.2454   -0.3007    0.0000 N   0  0  0  0  0  0  0  0  0  0  0  0
    2.9598    0.1118    0.0000 C   0  0  0  0  0  0  0  0  0  0  0  0
    2.9598    0.9368    0.0000 N   0  0  0  0  0  0  0  0  0  0  0  0
    2.2454    1.3493    0.0000 C   0  0  0  0  0  0  0  0  0  0  0  0
    1.5309    0.9368    0.0000 C   0  0  0  0  0  0  0  0  0  0  0  0
    0.8165    1.3493    0.0000 C   0  0  0  0  0  0  0  0  0  0  0  0
    0.1020    0.9368    0.0000 C   0  0  0  0  0  0  0  0  0  0  0  0
    0.1020    0.1118    0.0000 C   0  0  0  0  0  0  0  0  0  0  0  0
    0.8165   -0.3007    0.0000 C   0  0  0  0  0  0  0  0  0  0  0  0
    1.5309    0.1118    0.0000 C   0  0  0  0  0  0  0  0  0  0  0  0
    3.6743   -0.3007    0.0000 O   0  0  0  0  0  0  0  0  0  0  0  0
    3.6743    1.3493    0.0000 C   0  0  0  0  0  0  0  0  0  0  0  0
   -2.5519    1.1723    0.0000 C   0  0  0  0  0  0  0  0  0  0  0  0
   -3.3684    1.0542    0.0000 C   0  0  0  0  0  0  0  0  0  0  0  0
   -3.6743    0.2880    0.0000 C   0  0  0  0  0  0  0  0  0  0  0  0
   -3.1637   -0.3601    0.0000 C   0  0  0  0  0  0  0  0  0  0  0  0
   -2.3472   -0.2419    0.0000 C   0  0  0  0  0  0  0  0  0  0  0  0
   -1.8384   -0.8876    0.0000 O   0  0  0  0  0  0  0  0  0  0  0  0
   -2.1433   -1.6512    0.0000 C   0  0  0  0  0  0  0  0  0  0  0  0
  2  3  2  0      
  2  4  2  0      
  2  5  1  0      
  1  2  1  0      
  6  7  1  0      
  7  8  1  0      
  8  9  1  0      
  9 10  1  0      
 10 11  1  0      
 11 12  2  0      
 12 13  1  0      
 13 14  2  0      
 14 15  1  0      
  6 15  1  0      
 10 15  2  0      
  7 16  2  0      
  8 17  1  0      
  5 12  1  0      
  1 18  2  0      
 18 19  1  0      
 19 20  2  0      
 20 21  1  0      
 21 22  2  0      
 22  1  1  0      
 22 23  1  0      
 23 24  1  0      
M  END

>  <RackCode>
HYCPK72336

>  <Cat. No.>
HY-16586

>  <Product Name>
PFI-1

>  <ROW>
I

>  <COLUMN>
15

>  <CAS No.>
1403764-72-6

>  <MWt>
347.39

>  <Target>
Apoptosis; Autophagy; Epigenetic Reader Domain

>  <Saltdate>
Free Base

>  <Smiles>
O=S(C1=CC=CC=C1OC)(NC2=CC3=C(NC(N(C)C3)=O)C=C2)=O

>  <Solvent>
DMSO Solution

>  <Batch No.>
08691

>  <Quantity>
10mM  * 50uL

>  <Pathway>
Apoptosis; Autophagy; Epigenetics

>  <Synonyms>


>  <Formula>
C16H17N3O4S

>  <Research_Area>
Cancer

>  <Clinical_Information>
No Development Reported

>  <SUPPLIER>
MedChemExpress

$$$$
Untitled Document
  ChemDraw05241617162D

 25 26  0  0  0  0  0  0  0  0999 V2000
    0.8045   -0.0009    0.0000 O   0  0  0  0  0  0  0  0  0  0  0  0
    0.0910    0.4133    0.0000 C   0  0  0  0  0  0  0  0  0  0  0  0
    1.5180    0.4133    0.0000 C   0  0  0  0  0  0  0  0  0  0  0  0
   -0.6220   -0.0009    0.0000 C   0  0  0  0  0  0  0  0  0  0  0  0
    0.0910    1.2418    0.0000 O   0  0  0  0  0  0  0  0  0  0  0  0
    1.5180    1.2418    0.0000 C   0  0  0  0  0  0  0  0  0  0  0  0
    2.2318   -0.0009    0.0000 C   0  0  0  0  0  0  0  0  0  0  0  0
   -1.3372    0.4133    0.0000 C   0  0  0  0  0  0  0  0  0  0  0  0
    1.0659    1.9318    0.0000 O   0  0  0  0  0  0  0  0  0  0  0  0
    2.2318    1.6519    0.0000 C   0  0  0  0  0  0  0  0  0  0  0  0
    2.2318   -0.8274    0.0000 O   0  0  0  0  0  0  0  0  0  0  0  0
    2.9431    0.4133    0.0000 C   0  0  0  0  0  0  0  0  0  0  0  0
   -2.0462   -0.0009    0.0000 C   0  0  0  0  0  0  0  0  0  0  0  0
    2.9431    1.2418    0.0000 C   0  0  0  0  0  0  0  0  0  0  0  0
   -2.0462   -0.8274    0.0000 C   0  0  0  0  0  0  0  0  0  0  0  0
   -2.7633    0.4133    0.0000 C   0  0  0  0  0  0  0  0  0  0  0  0
    3.6761    1.0175    0.0000 C   0  0  0  0  0  0  0  0  0  0  0  0
    3.0091    2.0642    0.0000 O   0  0  0  0  0  0  0  0  0  0  0  0
   -2.7633   -1.2397    0.0000 C   0  0  0  0  0  0  0  0  0  0  0  0
   -3.4744   -0.0009    0.0000 C   0  0  0  0  0  0  0  0  0  0  0  0
    4.0735    0.2946    0.0000 O   0  0  0  0  0  0  0  0  0  0  0  0
    4.1871    1.6650    0.0000 O   0  0  0  0  0  0  0  0  0  0  0  0
   -2.7633   -2.0642    0.0000 O   0  0  0  0  0  0  0  0  0  0  0  0
   -3.4744   -0.8274    0.0000 C   0  0  0  0  0  0  0  0  0  0  0  0
   -4.1871   -1.2397    0.0000 O   0  0  0  0  0  0  0  0  0  0  0  0
  1  2  1  0      
  3  1  1  6      
  2  4  1  0      
  2  5  2  0      
  3  6  1  0      
  3  7  1  0      
  4  8  2  0      
  6  9  1  6      
  6 10  1  0      
  7 11  1  1      
  7 12  1  0      
  8 13  1  0      
 10 14  1  0      
 12 14  1  0      
 13 15  2  0      
 13 16  1  0      
 14 17  1  0      
 14 18  1  6      
 15 19  1  0      
 16 20  2  0      
 17 21  1  0      
 17 22  2  0      
 19 23  1  0      
 19 24  2  0      
 20 24  1  0      
 24 25  1  0      
M  END

>  <RackCode>
HYCPK72336

>  <Cat. No.>
HY-N0787

>  <Product Name>
Cryptochlorogenic acid

>  <ROW>
J

>  <COLUMN>
15

>  <CAS No.>
905-99-7

>  <MWt>
354.31

>  <Target>
Endogenous Metabolite; HIF/HIF Prolyl-Hydroxylase; Keap1-Nrf2; mTOR; NF-¦ÊB

>  <Saltdate>
Free Acid

>  <Smiles>
O=C(/C=C/C1=CC(O)=C(O)C=C1)O[C@@H]([C@@H]2O)[C@@H](C[C@](C(O)=O)(O)C2)O

>  <Solvent>
DMSO Solution

>  <Batch No.>
26311

>  <Quantity>
10mM  * 50uL

>  <Pathway>
Metabolic Enzyme/Protease; NF-¦ÊB; PI3K/Akt/mTOR

>  <Synonyms>
4-Caffeoylquinic acid; 4-O-Caffeoylquinic acid

>  <Formula>
C16H18O9

>  <Research_Area>
Inflammation/Immunology

>  <Clinical_Information>
No Development Reported

>  <SUPPLIER>
MedChemExpress

$$$$
Untitled Document
  ChemDraw04122117252D

 60 65  0  0  0  0  0  0  0  0999 V2000
    1.4407    1.3709    0.0000 C   0  0  0  0  0  0  0  0  0  0  0  0
    1.4407    0.5459    0.0000 C   0  0  0  0  0  0  0  0  0  0  0  0
    2.1552    0.9584    0.0000 C   0  0  0  0  0  0  0  0  0  0  0  0
    2.1552    0.1334    0.0000 C   0  0  0  0  0  0  0  0  0  0  0  0
    2.1552    1.7834    0.0000 C   0  0  0  0  0  0  0  0  0  0  0  0
    2.9398    2.0384    0.0000 C   0  0  0  0  0  0  0  0  0  0  0  0
    3.5529    2.5904    0.0000 C   0  0  0  0  0  0  0  0  0  0  0  0
    4.3375    2.3355    0.0000 C   0  0  0  0  0  0  0  0  0  0  0  0
    4.9506    2.8875    0.0000 C   0  0  0  0  0  0  0  0  0  0  0  0
    5.7352    2.6326    0.0000 C   0  0  0  0  0  0  0  0  0  0  0  0
    6.3483    3.1846    0.0000 C   0  0  0  0  0  0  0  0  0  0  0  0
    6.1768    3.9916    0.0000 C   0  0  0  0  0  0  0  0  0  0  0  0
    7.1329    2.9297    0.0000 C   0  0  0  0  0  0  0  0  0  0  0  0
    3.8078    3.3750    0.0000 C   0  0  0  0  0  0  0  0  0  0  0  0
    3.0009    3.2035    0.0000 O   0  0  0  0  0  0  0  0  0  0  0  0
    3.4247    1.3709    0.0000 C   0  0  0  0  0  0  0  0  0  0  0  0
    2.9398    0.7035    0.0000 C   0  0  0  0  0  0  0  0  0  0  0  0
    2.7683    2.8453    0.0000 H   0  0  0  0  0  0  0  0  0  0  0  0
    1.4407    2.1959    0.0000 C   0  0  0  0  0  0  0  0  0  0  0  0
    1.4407    3.0209    0.0000 O   0  0  0  0  0  0  0  0  0  0  0  0
    0.7262    1.7834    0.0000 C   0  0  0  0  0  0  0  0  0  0  0  0
    0.7262    0.9584    0.0000 C   0  0  0  0  0  0  0  0  0  0  0  0
    0.0118    0.5459    0.0000 C   0  0  0  0  0  0  0  0  0  0  0  0
    0.0118    1.3709    0.0000 C   0  0  0  0  0  0  0  0  0  0  0  0
    0.0118   -0.2791    0.0000 C   0  0  0  0  0  0  0  0  0  0  0  0
    0.7262   -0.6916    0.0000 C   0  0  0  0  0  0  0  0  0  0  0  0
    1.4407   -0.2791    0.0000 C   0  0  0  0  0  0  0  0  0  0  0  0
   -0.7027   -0.6916    0.0000 C   0  0  0  0  0  0  0  0  0  0  0  0
   -0.2902   -1.4060    0.0000 C   0  0  0  0  0  0  0  0  0  0  0  0
   -1.1152   -1.4060    0.0000 C   0  0  0  0  0  0  0  0  0  0  0  0
   -1.4172   -0.2791    0.0000 C   0  0  0  0  0  0  0  0  0  0  0  0
   -2.1316   -0.6916    0.0000 O   0  0  0  0  0  0  0  0  0  0  0  0
   -2.8461   -0.2791    0.0000 C   0  0  0  0  0  0  0  0  0  0  0  0
   -3.5606   -0.6916    0.0000 C   0  0  0  0  0  0  0  0  0  0  0  0
   -3.5606   -1.5166    0.0000 O   0  0  0  0  0  0  0  0  0  0  0  0
   -4.2751   -1.9291    0.0000 C   0  0  0  0  0  0  0  0  0  0  0  0
   -4.9895   -1.5166    0.0000 O   0  0  0  0  0  0  0  0  0  0  0  0
   -5.7040   -1.9291    0.0000 C   0  0  0  0  0  0  0  0  0  0  0  0
   -6.4185   -1.5166    0.0000 C   0  0  0  0  0  0  0  0  0  0  0  0
   -7.1329   -1.9291    0.0000 O   0  0  0  0  0  0  0  0  0  0  0  0
   -5.7040   -2.7541    0.0000 C   0  0  0  0  0  0  0  0  0  0  0  0
   -6.4185   -3.1666    0.0000 O   0  0  0  0  0  0  0  0  0  0  0  0
   -4.9895   -3.1666    0.0000 C   0  0  0  0  0  0  0  0  0  0  0  0
   -4.9895   -3.9916    0.0000 O   0  0  0  0  0  0  0  0  0  0  0  0
   -4.2751   -2.7541    0.0000 C   0  0  0  0  0  0  0  0  0  0  0  0
   -3.5606   -3.1666    0.0000 O   0  0  0  0  0  0  0  0  0  0  0  0
   -4.2751   -0.2791    0.0000 C   0  0  0  0  0  0  0  0  0  0  0  0
   -4.9895   -0.6916    0.0000 O   0  0  0  0  0  0  0  0  0  0  0  0
   -4.2751    0.5459    0.0000 C   0  0  0  0  0  0  0  0  0  0  0  0
   -4.9895    0.9584    0.0000 O   0  0  0  0  0  0  0  0  0  0  0  0
   -3.5606    0.9584    0.0000 C   0  0  0  0  0  0  0  0  0  0  0  0
   -3.5606    1.7834    0.0000 C   0  0  0  0  0  0  0  0  0  0  0  0
   -4.2751    2.1959    0.0000 O   0  0  0  0  0  0  0  0  0  0  0  0
   -2.8461    0.5459    0.0000 O   0  0  0  0  0  0  0  0  0  0  0  0
   -1.4172    0.5459    0.0000 C   0  0  0  0  0  0  0  0  0  0  0  0
   -2.1316    0.9584    0.0000 O   0  0  0  0  0  0  0  0  0  0  0  0
   -0.7027    0.9584    0.0000 C   0  0  0  0  0  0  0  0  0  0  0  0
    0.0118   -1.1041    0.0000 H   0  0  0  0  0  0  0  0  0  0  0  0
    0.7262    0.1334    0.0000 H   0  0  0  0  0  0  0  0  0  0  0  0
    2.2414    2.6039    0.0000 H   0  0  0  0  0  0  0  0  0  0  0  0
  2  1  1  1      
  2  3  1  0      
  3  4  1  6      
  3  5  1  0      
  5  6  1  0      
  6  7  1  0      
  7  8  1  0      
  8  9  1  0      
  9 10  1  0      
 10 11  2  0      
 11 12  1  0      
 11 13  1  0      
  7 14  1  1      
  7 15  1  6      
  6 16  1  0      
 16 17  1  0      
  3 17  1  0      
  6 18  1  6      
  5 19  1  0      
 19 20  1  1      
 19 21  1  0      
 21 22  1  0      
  2 22  1  0      
 22 23  1  0      
 23 24  1  1      
 23 25  1  0      
 25 26  1  0      
 26 27  1  0      
  2 27  1  0      
 25 28  1  0      
 28 29  1  0      
 28 30  1  0      
 28 31  1  0      
 31 32  1  1      
 33 32  1  1      
 33 34  1  0      
 34 35  1  6      
 36 35  1  1      
 36 37  1  0      
 37 38  1  0      
 38 39  1  1      
 39 40  1  0      
 38 41  1  0      
 41 42  1  6      
 41 43  1  0      
 43 44  1  1      
 43 45  1  0      
 36 45  1  0      
 45 46  1  6      
 34 47  1  0      
 47 48  1  1      
 47 49  1  0      
 49 50  1  6      
 49 51  1  0      
 51 52  1  1      
 52 53  1  0      
 51 54  1  0      
 33 54  1  0      
 31 55  1  0      
 55 56  1  6      
 55 57  1  0      
 23 57  1  0      
 25 58  1  6      
 22 59  1  6      
  5 60  1  1      
M  END

>  <RackCode>
HYCPK72336

>  <Cat. No.>
HY-N8207

>  <Product Name>
Gypenoside LI

>  <ROW>
K

>  <COLUMN>
15

>  <CAS No.>
94987-10-7

>  <MWt>
801.01

>  <Target>
Apoptosis; MicroRNA

>  <Saltdate>


>  <Smiles>
C[C@]12[C@]3([C@@]([C@@H](C[C@]1([H])[C@@]4([C@@](C(C)([C@H]([C@@H](C4)O)O[C@H]5[C@@H]([C@H]([C@@H]([C@H](O5)CO)O)O)O[C@@H]6O[C@@H]([C@H]([C@@H]([C@H]6O)O)O)CO)C)([H])CC2)C)O)([H])[C@@](CC3)([H])[C@](C)(O)CC/C=C(C)\C)C

>  <Solvent>
DMSO Solution

>  <Batch No.>
247352

>  <Quantity>
10mM  * 50uL

>  <Pathway>
Apoptosis; Epigenetics

>  <Synonyms>


>  <Formula>
C42H72O14

>  <Research_Area>
Cancer

>  <Clinical_Information>
No Development Reported

>  <SUPPLIER>
MedChemExpress

$$$$
Untitled Document
  ChemDraw05031615172D

 29 34  0  0  0  0  0  0  0  0999 V2000
    0.7995    0.4767    0.0000 N   0  0  0  0  0  0  0  0  0  0  0  0
    0.3870   -0.2378    0.0000 C   0  0  0  0  0  0  0  0  0  0  0  0
   -0.4200   -0.4093    0.0000 C   0  0  0  0  0  0  0  0  0  0  0  0
   -0.6749   -1.1940    0.0000 C   0  0  0  0  0  0  0  0  0  0  0  0
   -0.1229   -1.8071    0.0000 C   0  0  0  0  0  0  0  0  0  0  0  0
    0.6841   -1.6355    0.0000 C   0  0  0  0  0  0  0  0  0  0  0  0
    0.9390   -0.8509    0.0000 C   0  0  0  0  0  0  0  0  0  0  0  0
    1.6927   -0.5153    0.0000 C   0  0  0  0  0  0  0  0  0  0  0  0
    2.4464   -0.8509    0.0000 C   0  0  0  0  0  0  0  0  0  0  0  0
    3.1138   -0.3660    0.0000 C   0  0  0  0  0  0  0  0  0  0  0  0
    3.0276    0.4545    0.0000 C   0  0  0  0  0  0  0  0  0  0  0  0
    2.2739    0.7901    0.0000 C   0  0  0  0  0  0  0  0  0  0  0  0
    1.6065    0.3051    0.0000 C   0  0  0  0  0  0  0  0  0  0  0  0
    0.5446   -2.9631    0.0000 N   0  0  0  0  0  0  0  0  0  0  0  0
   -0.2091   -2.6275    0.0000 C   0  0  0  0  0  0  0  0  0  0  0  0
    1.0966   -2.3500    0.0000 C   0  0  0  0  0  0  0  0  0  0  0  0
   -1.0874    0.0756    0.0000 N   0  0  0  0  0  0  0  0  0  0  0  0
   -1.4999   -1.1940    0.0000 C   0  0  0  0  0  0  0  0  0  0  0  0
   -2.0519   -1.8071    0.0000 C   0  0  0  0  0  0  0  0  0  0  0  0
   -2.8589   -1.6355    0.0000 C   0  0  0  0  0  0  0  0  0  0  0  0
   -3.1138   -0.8509    0.0000 C   0  0  0  0  0  0  0  0  0  0  0  0
   -2.5618   -0.2378    0.0000 C   0  0  0  0  0  0  0  0  0  0  0  0
   -1.7548   -0.4093    0.0000 C   0  0  0  0  0  0  0  0  0  0  0  0
   -1.8019    2.1381    0.0000 C   0  0  0  0  0  0  0  0  0  0  0  0
   -1.8019    1.3131    0.0000 C   0  0  0  0  0  0  0  0  0  0  0  0
   -1.0874    0.9006    0.0000 C   0  0  0  0  0  0  0  0  0  0  0  0
   -1.8019    2.9631    0.0000 N   0  0  0  0  0  0  0  0  0  0  0  0
    1.9171   -2.4362    0.0000 O   0  0  0  0  0  0  0  0  0  0  0  0
    0.4640    1.2303    0.0000 C   0  0  0  0  0  0  0  0  0  0  0  0
  1  2  1  0      
  2  3  1  0      
  3  4  2  0      
  4  5  1  0      
  5  6  2  0      
  6  7  1  0      
  2  7  2  0      
  7  8  1  0      
  8  9  1  0      
  9 10  2  0      
 10 11  1  0      
 11 12  2  0      
 12 13  1  0      
  8 13  2  0      
  1 13  1  0      
 14 15  1  0      
 14 16  1  0      
  5 15  1  0      
  6 16  1  0      
 18 19  1  0      
 19 20  2  0      
 20 21  1  0      
 21 22  2  0      
 22 23  1  0      
 17 23  1  0      
 18 23  2  0      
  3 17  1  0      
  4 18  1  0      
 24 25  1  0      
 25 26  1  0      
 24 27  3  0      
 17 26  1  0      
 16 28  2  0      
  1 29  1  0      
M  END

>  <RackCode>
HYCPK72336

>  <Cat. No.>
HY-10183

>  <Product Name>
Go6976

>  <ROW>
L

>  <COLUMN>
15

>  <CAS No.>
136194-77-9

>  <MWt>
378.43

>  <Target>
Influenza Virus; PKC

>  <Saltdate>


>  <Smiles>
N#CCCN(C1=C2C(CNC3=O)=C3C4=C1N(C)C5=C4C=CC=C5)C6=C2C=CC=C6

>  <Solvent>
DMSO Solution

>  <Batch No.>
117740

>  <Quantity>
10mM  * 50uL

>  <Pathway>
Anti-infection; Epigenetics; TGF-beta/Smad

>  <Synonyms>


>  <Formula>
C24H18N4O

>  <Research_Area>
Cancer

>  <Clinical_Information>
No Development Reported

>  <SUPPLIER>
MedChemExpress

$$$$
Untitled Document
  ChemDraw02142214012D

 30 34  0  0  0  0  0  0  0  0999 V2000
   -5.0011    1.6500    0.0000 N   0  0  0  0  0  0  0  0  0  0  0  0
   -4.2867    1.2375    0.0000 C   0  0  0  0  0  0  0  0  0  0  0  0
   -3.5723    0.8250    0.0000 C   0  0  0  0  0  0  0  0  0  0  0  0
   -2.8578    1.2375    0.0000 C   0  0  0  0  0  0  0  0  0  0  0  0
   -2.1433    0.8250    0.0000 N   0  0  0  0  0  0  0  0  0  0  0  0
   -2.1433    0.0000    0.0000 C   0  0  0  0  0  0  0  0  0  0  0  0
   -2.8578   -0.4125    0.0000 C   0  0  0  0  0  0  0  0  0  0  0  0
   -3.5723    0.0000    0.0000 C   0  0  0  0  0  0  0  0  0  0  0  0
   -1.4289   -0.4125    0.0000 N   0  0  0  0  0  0  0  0  0  0  0  0
   -0.7145    0.0000    0.0000 C   0  0  0  0  0  0  0  0  0  0  0  0
    0.0000   -0.4125    0.0000 C   0  0  0  0  0  0  0  0  0  0  0  0
    0.0000   -1.2375    0.0000 N   0  0  0  0  0  0  0  0  0  0  0  0
    0.7145   -1.6500    0.0000 C   0  0  0  0  0  0  0  0  0  0  0  0
    1.4289   -1.2375    0.0000 C   0  0  0  0  0  0  0  0  0  0  0  0
    1.4289   -0.4125    0.0000 C   0  0  0  0  0  0  0  0  0  0  0  0
    2.1433    0.0000    0.0000 C   0  0  0  0  0  0  0  0  0  0  0  0
    2.8578   -0.4125    0.0000 C   0  0  0  0  0  0  0  0  0  0  0  0
    2.8578   -1.2375    0.0000 C   0  0  0  0  0  0  0  0  0  0  0  0
    2.1433   -1.6500    0.0000 C   0  0  0  0  0  0  0  0  0  0  0  0
    3.5723   -1.6500    0.0000 N   0  0  0  0  0  0  0  0  0  0  0  0
    4.2867   -1.2375    0.0000 C   0  0  0  0  0  0  0  0  0  0  0  0
    5.0011   -1.6500    0.0000 O   0  0  0  0  0  0  0  0  0  0  0  0
    4.2867   -0.4125    0.0000 C   0  0  0  0  0  0  0  0  0  0  0  0
    3.5723    0.0000    0.0000 C   0  0  0  0  0  0  0  0  0  0  0  0
    3.5723    0.8250    0.0000 N   0  0  0  0  0  0  0  0  0  0  0  0
    4.2867    1.2375    0.0000 C   0  0  0  0  0  0  0  0  0  0  0  0
    5.0011    0.8250    0.0000 C   0  0  0  0  0  0  0  0  0  0  0  0
    5.0011    0.0000    0.0000 C   0  0  0  0  0  0  0  0  0  0  0  0
   -0.7145   -1.6500    0.0000 C   0  0  0  0  0  0  0  0  0  0  0  0
   -1.4289   -1.2375    0.0000 C   0  0  0  0  0  0  0  0  0  0  0  0
  1  2  3  0      
  2  3  1  0      
  3  4  2  0      
  4  5  1  0      
  5  6  2  0      
  6  7  1  0      
  7  8  2  0      
  3  8  1  0      
  6  9  1  0      
  9 10  1  0      
 10 11  1  0      
 11 12  1  0      
 12 13  1  0      
 13 14  1  0      
 14 15  1  0      
 15 16  2  0      
 16 17  1  0      
 17 18  2  0      
 18 19  1  0      
 14 19  2  0      
 18 20  1  0      
 20 21  1  0      
 21 22  2  0      
 21 23  1  0      
 23 24  2  0      
 17 24  1  0      
 24 25  1  0      
 25 26  1  0      
 26 27  1  0      
 27 28  1  0      
 23 28  1  0      
 12 29  1  0      
 29 30  1  0      
  9 30  1  0      
M  END

>  <RackCode>
HYCPK72336

>  <Cat. No.>
HY-145584

>  <Product Name>
Nesuparib

>  <ROW>
M

>  <COLUMN>
15

>  <CAS No.>
2055357-64-5

>  <MWt>
400.48

>  <Target>
PARP

>  <Saltdate>


>  <Smiles>
N#CC1=CN=C(N2CCN(CC2)CC3=CC(NC(C4=C5NCCC4)=O)=C5C=C3)C=C1

>  <Solvent>
DMSO Solution

>  <Batch No.>
235915

>  <Quantity>
10mM  * 50uL

>  <Pathway>
Cell Cycle/DNA Damage; Epigenetics

>  <Synonyms>
JPI-547/OCN-201

>  <Formula>
C23H24N6O

>  <Research_Area>
Neurological Disease; Cardiovascular Disease

>  <Clinical_Information>
No Development Reported

>  <SUPPLIER>
MedChemExpress

$$$$
Untitled Document
  ChemDraw12081612432D

 36 40  0  0  0  0  0  0  0  0999 V2000
    0.7291   -0.9645    0.0000 C   0  0  0  0  0  0  0  0  0  0  0  0
    0.0146   -1.3770    0.0000 C   0  0  0  0  0  0  0  0  0  0  0  0
   -0.6997   -0.9645    0.0000 C   0  0  0  0  0  0  0  0  0  0  0  0
   -1.4142   -1.3770    0.0000 C   0  0  0  0  0  0  0  0  0  0  0  0
   -1.4142   -2.2021    0.0000 C   0  0  0  0  0  0  0  0  0  0  0  0
   -0.6997   -2.6146    0.0000 C   0  0  0  0  0  0  0  0  0  0  0  0
    0.0146   -2.2021    0.0000 C   0  0  0  0  0  0  0  0  0  0  0  0
    0.7291   -0.1396    0.0000 O   0  0  0  0  0  0  0  0  0  0  0  0
    1.4436   -1.3770    0.0000 N   0  0  0  0  0  0  0  0  0  0  0  0
   -3.0219    0.0274    0.0000 O   0  0  0  0  0  0  0  0  0  0  0  0
   -2.2149   -0.1441    0.0000 N   0  0  0  0  0  0  0  0  0  0  0  0
   -2.1287   -0.9645    0.0000 C   0  0  0  0  0  0  0  0  0  0  0  0
   -2.8824   -1.3002    0.0000 N   0  0  0  0  0  0  0  0  0  0  0  0
   -3.4343   -0.6870    0.0000 C   0  0  0  0  0  0  0  0  0  0  0  0
   -4.2548   -0.7733    0.0000 C   0  0  0  0  0  0  0  0  0  0  0  0
   -5.0752   -0.8595    0.0000 F   0  0  0  0  0  0  0  0  0  0  0  0
   -4.5903   -1.5269    0.0000 F   0  0  0  0  0  0  0  0  0  0  0  0
   -4.7397   -0.1059    0.0000 F   0  0  0  0  0  0  0  0  0  0  0  0
    2.1580   -0.9645    0.0000 C   0  0  0  0  0  0  0  0  0  0  0  0
    2.8725   -2.8060    0.0000 C   0  0  0  0  0  0  0  0  0  0  0  0
    2.4600   -2.0915    0.0000 C   0  0  0  0  0  0  0  0  0  0  0  0
    2.8725   -1.3770    0.0000 C   0  0  0  0  0  0  0  0  0  0  0  0
    3.6974   -1.3770    0.0000 C   0  0  0  0  0  0  0  0  0  0  0  0
    4.1100   -2.0915    0.0000 C   0  0  0  0  0  0  0  0  0  0  0  0
    3.6974   -2.8060    0.0000 O   0  0  0  0  0  0  0  0  0  0  0  0
    2.2051   -0.0671    0.0000 S   0  0  0  0  0  0  0  0  0  0  0  0
    2.8725   -0.5521    0.0000 C   0  0  0  0  0  0  0  0  0  0  0  0
    3.5399   -0.0671    0.0000 N   0  0  0  0  0  0  0  0  0  0  0  0
    3.2849    0.7175    0.0000 C   0  0  0  0  0  0  0  0  0  0  0  0
    2.4600    0.7175    0.0000 C   0  0  0  0  0  0  0  0  0  0  0  0
    3.7698    1.3848    0.0000 C   0  0  0  0  0  0  0  0  0  0  0  0
    3.4343    2.1386    0.0000 C   0  0  0  0  0  0  0  0  0  0  0  0
    3.9192    2.8060    0.0000 C   0  0  0  0  0  0  0  0  0  0  0  0
    4.7397    2.7197    0.0000 C   0  0  0  0  0  0  0  0  0  0  0  0
    5.0752    1.9661    0.0000 C   0  0  0  0  0  0  0  0  0  0  0  0
    4.5903    1.2987    0.0000 C   0  0  0  0  0  0  0  0  0  0  0  0
  1  2  1  0      
  2  3  1  0      
  3  4  2  0      
  4  5  1  0      
  5  6  2  0      
  6  7  1  0      
  2  7  2  0      
  1  8  2  0      
  1  9  1  0      
 10 11  1  0      
 11 12  2  0      
 12 13  1  0      
 13 14  2  0      
 10 14  1  0      
 15 16  1  0      
 15 17  1  0      
 15 18  1  0      
 14 15  1  0      
  4 12  1  0      
 20 21  1  0      
 21 22  1  0      
 22 23  1  0      
 23 24  1  0      
 24 25  1  0      
 20 25  1  0      
 26 27  1  0      
 27 28  2  0      
 28 29  1  0      
 29 30  2  0      
 26 30  1  0      
 31 32  1  0      
 32 33  2  0      
 33 34  1  0      
 34 35  2  0      
 35 36  1  0      
 31 36  2  0      
 29 31  1  0      
 22 27  1  0      
 19 22  1  0      
  9 19  1  0      
M  END

>  <RackCode>
HYCPK72336

>  <Cat. No.>
HY-18360

>  <Product Name>
TMP269

>  <ROW>
N

>  <COLUMN>
15

>  <CAS No.>
1314890-29-3

>  <MWt>
514.52

>  <Target>
HDAC

>  <Saltdate>
Free Base

>  <Smiles>
O=C(NCC1(C2=NC(C3=CC=CC=C3)=CS2)CCOCC1)C4=CC=CC(C5=NOC(C(F)(F)F)=N5)=C4

>  <Solvent>
DMSO Solution

>  <Batch No.>
12717

>  <Quantity>
10mM  * 50uL

>  <Pathway>
Cell Cycle/DNA Damage; Epigenetics

>  <Synonyms>


>  <Formula>
C25H21F3N4O3S

>  <Research_Area>
Cancer

>  <Clinical_Information>
No Development Reported

>  <SUPPLIER>
MedChemExpress

$$$$
Untitled Document
  ChemDraw02012312412D

 35 38  0  0  0  0  0  0  0  0999 V2000
   -2.1428    0.2046    0.0000 C   0  0  0  0  0  0  0  0  0  0  0  0
   -1.4282   -0.2046    0.0000 C   0  0  0  0  0  0  0  0  0  0  0  0
   -1.4282   -1.0296    0.0000 C   0  0  0  0  0  0  0  0  0  0  0  0
   -0.7136   -1.4454    0.0000 C   0  0  0  0  0  0  0  0  0  0  0  0
    0.0010   -1.0296    0.0000 N   0  0  0  0  0  0  0  0  0  0  0  0
    0.0010   -0.2046    0.0000 C   0  0  0  0  0  0  0  0  0  0  0  0
   -0.7136    0.2046    0.0000 C   0  0  0  0  0  0  0  0  0  0  0  0
    0.7157   -1.4454    0.0000 C   0  0  0  0  0  0  0  0  0  0  0  0
    1.4303   -1.0296    0.0000 C   0  0  0  0  0  0  0  0  0  0  0  0
    2.1449   -1.4454    0.0000 C   0  0  0  0  0  0  0  0  0  0  0  0
    2.8616   -1.0296    0.0000 C   0  0  0  0  0  0  0  0  0  0  0  0
    2.8616   -0.2046    0.0000 O   0  0  0  0  0  0  0  0  0  0  0  0
    3.5741   -1.4454    0.0000 N   0  0  0  0  0  0  0  0  0  0  0  0
    3.5741   -2.2704    0.0000 C   0  0  0  0  0  0  0  0  0  0  0  0
    2.8616   -2.6796    0.0000 N   0  0  0  0  0  0  0  0  0  0  0  0
    2.1449   -2.2704    0.0000 C   0  0  0  0  0  0  0  0  0  0  0  0
    1.4303   -2.6796    0.0000 C   0  0  0  0  0  0  0  0  0  0  0  0
    5.0034   -2.2704    0.0000 S   0  0  0  0  0  0  0  0  0  0  0  0
    5.0034   -1.4454    0.0000 C   0  0  0  0  0  0  0  0  0  0  0  0
    4.2908   -1.0296    0.0000 C   0  0  0  0  0  0  0  0  0  0  0  0
   -2.8595   -0.2046    0.0000 C   0  0  0  0  0  0  0  0  0  0  0  0
   -2.8595   -1.0296    0.0000 C   0  0  0  0  0  0  0  0  0  0  0  0
   -3.5721   -1.4454    0.0000 C   0  0  0  0  0  0  0  0  0  0  0  0
   -4.2888   -1.0296    0.0000 C   0  0  0  0  0  0  0  0  0  0  0  0
   -4.2888   -0.2046    0.0000 C   0  0  0  0  0  0  0  0  0  0  0  0
   -3.5721    0.2046    0.0000 C   0  0  0  0  0  0  0  0  0  0  0  0
   -5.0034   -1.4454    0.0000 F   0  0  0  0  0  0  0  0  0  0  0  0
   -2.1428    1.0296    0.0000 C   0  0  0  0  0  0  0  0  0  0  0  0
   -2.8595    1.4454    0.0000 C   0  0  0  0  0  0  0  0  0  0  0  0
   -2.8595    2.2704    0.0000 C   0  0  0  0  0  0  0  0  0  0  0  0
   -2.1428    2.6796    0.0000 C   0  0  0  0  0  0  0  0  0  0  0  0
   -1.4303    2.2704    0.0000 C   0  0  0  0  0  0  0  0  0  0  0  0
   -1.4303    1.4454    0.0000 C   0  0  0  0  0  0  0  0  0  0  0  0
   -1.1809   -2.4987    0.0000 H   0  0  0  0  0  0  0  0  0  0  0  0
   -0.3559   -2.4987    0.0000 Cl  0  0  0  0  0  0  0  0  0  0  0  0
  1  2  2  0      
  1 21  1  0      
  1 28  1  0      
  2  3  1  0      
  2  7  1  0      
  3  4  1  0      
  4  5  1  0      
  6  5  1  0      
  5  8  1  0      
  7  6  1  0      
  8  9  1  0      
  9 10  1  0      
 10 11  1  0      
 10 16  2  0      
 11 12  2  0      
 11 13  1  0      
 13 14  1  0      
 13 20  1  0      
 15 14  2  0      
 14 18  1  0      
 16 15  1  0      
 16 17  1  0      
 18 19  1  0      
 20 19  2  0      
 21 22  2  0      
 21 26  1  0      
 22 23  1  0      
 23 24  2  0      
 25 24  1  0      
 24 27  1  0      
 26 25  2  0      
 28 29  2  0      
 28 33  1  0      
 29 30  1  0      
 30 31  2  0      
 32 31  1  0      
 33 32  2  0      
 34 35  1  0      
M  END

>  <RackCode>
HYCPK72336

>  <Cat. No.>
HY-107613A

>  <Product Name>
R 59-022 (hydrochloride)

>  <ROW>
O

>  <COLUMN>
15

>  <CAS No.>
93076-98-3

>  <MWt>
496.04

>  <Target>
5-HT Receptor; PKC

>  <Saltdate>
Hydrochloride

>  <Smiles>
O=C1C(CCN(CC/2)CCC2=C(C3=CC=CC=C3)/C4=CC=C(F)C=C4)=C(C)N=C5N1C=CS5.[H]Cl

>  <Solvent>
DMSO Solution

>  <Batch No.>
250178

>  <Quantity>
10mM  * 50uL

>  <Pathway>
Epigenetics; GPCR/G Protein; Neuronal Signaling; TGF-beta/Smad

>  <Synonyms>
DKGI-I (hydrochloride); Diacylglycerol kinase inhibitor I (hydrochloride)

>  <Formula>
C27H27ClFN3OS

>  <Research_Area>
Cancer; Infection; Inflammation/Immunology

>  <Clinical_Information>
No Development Reported

>  <SUPPLIER>
MedChemExpress

$$$$
Untitled Document
  ChemDraw05101917262D

 37 41  0  0  0  0  0  0  0  0999 V2000
    2.7078    2.9959    0.0000 O   0  0  0  0  0  0  0  0  0  0  0  0
    1.8828    2.9959    0.0000 C   0  0  0  0  0  0  0  0  0  0  0  0
    1.3978    3.6633    0.0000 N   0  0  0  0  0  0  0  0  0  0  0  0
    0.6132    3.4084    0.0000 C   0  0  0  0  0  0  0  0  0  0  0  0
   -0.1013    3.8209    0.0000 C   0  0  0  0  0  0  0  0  0  0  0  0
   -0.8157    3.4084    0.0000 C   0  0  0  0  0  0  0  0  0  0  0  0
   -0.8157    2.5834    0.0000 C   0  0  0  0  0  0  0  0  0  0  0  0
   -0.1013    2.1709    0.0000 C   0  0  0  0  0  0  0  0  0  0  0  0
    0.6132    2.5834    0.0000 C   0  0  0  0  0  0  0  0  0  0  0  0
    1.3978    2.3284    0.0000 C   0  0  0  0  0  0  0  0  0  0  0  0
    1.6528    1.5438    0.0000 C   0  0  0  0  0  0  0  0  0  0  0  0
    2.4497    1.3303    0.0000 N   0  0  0  0  0  0  0  0  0  0  0  0
    2.6632    0.5334    0.0000 C   0  0  0  0  0  0  0  0  0  0  0  0
    3.4601    0.3199    0.0000 C   0  0  0  0  0  0  0  0  0  0  0  0
    3.6736   -0.4770    0.0000 C   0  0  0  0  0  0  0  0  0  0  0  0
    3.0902   -1.0604    0.0000 C   0  0  0  0  0  0  0  0  0  0  0  0
    2.2934   -0.8468    0.0000 C   0  0  0  0  0  0  0  0  0  0  0  0
    2.0798   -0.0500    0.0000 C   0  0  0  0  0  0  0  0  0  0  0  0
    3.3038   -1.8573    0.0000 C   0  0  0  0  0  0  0  0  0  0  0  0
    2.7204   -2.4406    0.0000 N   0  0  0  0  0  0  0  0  0  0  0  0
    2.9339   -3.2375    0.0000 C   0  0  0  0  0  0  0  0  0  0  0  0
    2.3506   -3.8209    0.0000 C   0  0  0  0  0  0  0  0  0  0  0  0
    1.5537   -3.6074    0.0000 C   0  0  0  0  0  0  0  0  0  0  0  0
    1.3402   -2.8105    0.0000 C   0  0  0  0  0  0  0  0  0  0  0  0
    1.9235   -2.2271    0.0000 C   0  0  0  0  0  0  0  0  0  0  0  0
    1.0694    0.9605    0.0000 C   0  0  0  0  0  0  0  0  0  0  0  0
    1.2829    0.1636    0.0000 C   0  0  0  0  0  0  0  0  0  0  0  0
    0.6996   -0.4198    0.0000 C   0  0  0  0  0  0  0  0  0  0  0  0
   -0.0973   -0.2063    0.0000 C   0  0  0  0  0  0  0  0  0  0  0  0
   -0.3108    0.5906    0.0000 C   0  0  0  0  0  0  0  0  0  0  0  0
    0.2725    1.1740    0.0000 C   0  0  0  0  0  0  0  0  0  0  0  0
   -1.5302    2.1709    0.0000 N   0  0  0  0  0  0  0  0  0  0  0  0
   -2.2447    2.5834    0.0000 S   0  0  0  0  0  0  0  0  0  0  0  0
   -2.9591    2.9959    0.0000 C   0  0  0  0  0  0  0  0  0  0  0  0
   -3.6736    2.5834    0.0000 C   0  0  0  0  0  0  0  0  0  0  0  0
   -1.8322    3.2978    0.0000 O   0  0  0  0  0  0  0  0  0  0  0  0
   -2.6572    1.8689    0.0000 O   0  0  0  0  0  0  0  0  0  0  0  0
  1  2  2  0      
  2  3  1  0      
  3  4  1  0      
  4  5  2  0      
  5  6  1  0      
  6  7  2  0      
  7  8  1  0      
  8  9  2  0      
  4  9  1  0      
  9 10  1  0      
  2 10  1  0      
 10 11  2  0      
 11 12  1  0      
 12 13  1  0      
 13 14  2  0      
 14 15  1  0      
 15 16  2  0      
 16 17  1  0      
 17 18  2  0      
 13 18  1  0      
 16 19  1  0      
 19 20  1  0      
 20 21  1  0      
 21 22  1  0      
 22 23  1  0      
 23 24  1  0      
 24 25  1  0      
 20 25  1  0      
 11 26  1  0      
 26 27  2  0      
 27 28  1  0      
 28 29  2  0      
 29 30  1  0      
 30 31  2  0      
 26 31  1  0      
  7 32  1  0      
 32 33  1  0      
 33 34  1  0      
 34 35  1  0      
 33 36  2  0      
 33 37  2  0      
M  END

>  <RackCode>
HYCPK72336

>  <Cat. No.>
HY-12054

>  <Product Name>
Hesperadin

>  <ROW>
P

>  <COLUMN>
15

>  <CAS No.>
422513-13-1

>  <MWt>
516.65

>  <Target>
Aurora Kinase; Autophagy; Influenza Virus; Parasite

>  <Saltdate>
Free Base

>  <Smiles>
O=C1NC2=CC=C(C=C2/C1=C(NC3=CC=C(C=C3)CN4CCCCC4)\C5=CC=CC=C5)NS(CC)(=O)=O

>  <Solvent>
DMSO Solution

>  <Batch No.>
08617

>  <Quantity>
10mM  * 50uL

>  <Pathway>
Anti-infection; Autophagy; Cell Cycle/DNA Damage; Epigenetics

>  <Synonyms>


>  <Formula>
C29H32N4O3S

>  <Research_Area>
Cancer

>  <Clinical_Information>
No Development Reported

>  <SUPPLIER>
MedChemExpress

$$$$
Untitled Document
  ChemDraw07291617102D

 33 37  0  0  0  0  0  0  0  0999 V2000
   -2.6947    4.0485    0.0000 C   0  0  0  0  0  0  0  0  0  0  0  0
   -2.6947    3.2235    0.0000 N   0  0  0  0  0  0  0  0  0  0  0  0
   -1.9802    2.8111    0.0000 C   0  0  0  0  0  0  0  0  0  0  0  0
   -1.2657    3.2235    0.0000 C   0  0  0  0  0  0  0  0  0  0  0  0
   -1.2657    4.0485    0.0000 C   0  0  0  0  0  0  0  0  0  0  0  0
   -1.9802    4.4610    0.0000 N   0  0  0  0  0  0  0  0  0  0  0  0
   -1.9802    1.9861    0.0000 N   0  0  0  0  0  0  0  0  0  0  0  0
   -1.2657    1.5736    0.0000 C   0  0  0  0  0  0  0  0  0  0  0  0
   -1.2657    0.7486    0.0000 C   0  0  0  0  0  0  0  0  0  0  0  0
   -0.5513    0.3361    0.0000 C   0  0  0  0  0  0  0  0  0  0  0  0
    0.1632    0.7486    0.0000 N   0  0  0  0  0  0  0  0  0  0  0  0
    0.1632    1.5736    0.0000 C   0  0  0  0  0  0  0  0  0  0  0  0
   -0.5513    1.9861    0.0000 C   0  0  0  0  0  0  0  0  0  0  0  0
    0.8777    0.3361    0.0000 C   0  0  0  0  0  0  0  0  0  0  0  0
    0.8777   -0.4889    0.0000 C   0  0  0  0  0  0  0  0  0  0  0  0
    0.1632   -0.9014    0.0000 C   0  0  0  0  0  0  0  0  0  0  0  0
    0.1632   -1.7264    0.0000 C   0  0  0  0  0  0  0  0  0  0  0  0
    0.8777   -2.1389    0.0000 C   0  0  0  0  0  0  0  0  0  0  0  0
    1.5921   -1.7264    0.0000 C   0  0  0  0  0  0  0  0  0  0  0  0
    1.5921   -0.9014    0.0000 C   0  0  0  0  0  0  0  0  0  0  0  0
    1.0492   -2.9458    0.0000 N   0  0  0  0  0  0  0  0  0  0  0  0
    1.8697   -3.0320    0.0000 C   0  0  0  0  0  0  0  0  0  0  0  0
    2.2052   -2.2785    0.0000 C   0  0  0  0  0  0  0  0  0  0  0  0
   -0.4811    2.9685    0.0000 C   0  0  0  0  0  0  0  0  0  0  0  0
    0.0038    3.6360    0.0000 C   0  0  0  0  0  0  0  0  0  0  0  0
   -0.4811    4.3034    0.0000 S   0  0  0  0  0  0  0  0  0  0  0  0
    0.8288    3.6360    0.0000 C   0  0  0  0  0  0  0  0  0  0  0  0
    1.2413    2.9215    0.0000 C   0  0  0  0  0  0  0  0  0  0  0  0
    2.0663    2.9215    0.0000 F   0  0  0  0  0  0  0  0  0  0  0  0
    0.8288    2.2071    0.0000 F   0  0  0  0  0  0  0  0  0  0  0  0
    1.6538    2.2071    0.0000 F   0  0  0  0  0  0  0  0  0  0  0  0
    2.2822   -3.7465    0.0000 C   0  0  0  0  0  0  0  0  0  0  0  0
    2.6947   -4.4610    0.0000 N   0  0  0  0  0  0  0  0  0  0  0  0
  1  2  1  0      
  2  3  2  0      
  3  4  1  0      
  4  5  2  0      
  5  6  1  0      
  6  1  2  0      
  3  7  1  0      
  7  8  1  0      
  8  9  1  0      
  9 10  1  0      
 10 11  1  0      
 11 12  1  0      
 12 13  1  0      
 13  8  1  0      
 11 14  1  0      
 14 15  1  0      
 15 16  2  0      
 16 17  1  0      
 17 18  2  0      
 18 19  1  0      
 19 20  2  0      
 20 15  1  0      
 18 21  1  0      
 21 22  1  0      
 22 23  2  0      
 23 19  1  0      
  4 24  1  0      
 24 25  2  0      
 25 26  1  0      
 26  5  1  0      
 25 27  1  0      
 27 28  1  0      
 22 32  1  0      
 28 29  1  0      
 28 30  1  0      
 28 31  1  0      
 32 33  3  0      
M  END

>  <RackCode>
HYCPK72336

>  <Cat. No.>
HY-19319

>  <Product Name>
MI-136

>  <ROW>
A

>  <COLUMN>
16

>  <CAS No.>
1628316-74-4

>  <MWt>
470.51

>  <Target>
Androgen Receptor; Apoptosis; Epigenetic Reader Domain

>  <Saltdate>
Free Base

>  <Smiles>
FC(F)(F)CC(S1)=CC2=C1N=CN=C2NC3CCN(CC4=CC=C(NC(C#N)=C5)C5=C4)CC3

>  <Solvent>
DMSO Solution

>  <Batch No.>
20302

>  <Quantity>
10mM  * 50uL

>  <Pathway>
Apoptosis; Epigenetics; Vitamin D Related/Nuclear Receptor

>  <Synonyms>


>  <Formula>
C23H21F3N6S

>  <Research_Area>
Cancer

>  <Clinical_Information>
No Development Reported

>  <SUPPLIER>
MedChemExpress

$$$$
Untitled Document
  ChemDraw04051714192D

 39 43  0  0  0  0  0  0  0  0999 V2000
    1.6693    1.7053    0.0000 N   0  0  0  0  0  0  0  0  0  0  0  0
    2.3838    1.2928    0.0000 C   0  0  0  0  0  0  0  0  0  0  0  0
    2.3838    0.4678    0.0000 N   0  0  0  0  0  0  0  0  0  0  0  0
    1.6693    0.0553    0.0000 C   0  0  0  0  0  0  0  0  0  0  0  0
    0.9548    0.4678    0.0000 C   0  0  0  0  0  0  0  0  0  0  0  0
    0.2404    0.0553    0.0000 C   0  0  0  0  0  0  0  0  0  0  0  0
   -0.4741    0.4678    0.0000 C   0  0  0  0  0  0  0  0  0  0  0  0
   -0.4741    1.2928    0.0000 C   0  0  0  0  0  0  0  0  0  0  0  0
    0.2404    1.7053    0.0000 C   0  0  0  0  0  0  0  0  0  0  0  0
    0.9548    1.2928    0.0000 C   0  0  0  0  0  0  0  0  0  0  0  0
    1.6693   -0.7697    0.0000 N   0  0  0  0  0  0  0  0  0  0  0  0
   -1.1886    1.7053    0.0000 O   0  0  0  0  0  0  0  0  0  0  0  0
   -1.9031    1.2928    0.0000 C   0  0  0  0  0  0  0  0  0  0  0  0
   -2.6175    1.7053    0.0000 C   0  0  0  0  0  0  0  0  0  0  0  0
   -3.3320    1.2928    0.0000 C   0  0  0  0  0  0  0  0  0  0  0  0
   -4.0465    1.7053    0.0000 N   0  0  0  0  0  0  0  0  0  0  0  0
   -4.8004    1.3697    0.0000 C   0  0  0  0  0  0  0  0  0  0  0  0
   -5.3522    1.9828    0.0000 C   0  0  0  0  0  0  0  0  0  0  0  0
   -4.9400    2.6973    0.0000 C   0  0  0  0  0  0  0  0  0  0  0  0
   -4.1327    2.5257    0.0000 C   0  0  0  0  0  0  0  0  0  0  0  0
   -0.4741   -2.0072    0.0000 N   0  0  0  0  0  0  0  0  0  0  0  0
   -0.4741   -1.1822    0.0000 C   0  0  0  0  0  0  0  0  0  0  0  0
    0.2404   -0.7697    0.0000 C   0  0  0  0  0  0  0  0  0  0  0  0
    0.9548   -1.1822    0.0000 C   0  0  0  0  0  0  0  0  0  0  0  0
    0.9548   -2.0072    0.0000 C   0  0  0  0  0  0  0  0  0  0  0  0
    0.2404   -2.4197    0.0000 C   0  0  0  0  0  0  0  0  0  0  0  0
   -1.1886   -2.4197    0.0000 C   0  0  0  0  0  0  0  0  0  0  0  0
   -1.1886   -3.2447    0.0000 C   0  0  0  0  0  0  0  0  0  0  0  0
   -1.9031   -2.0072    0.0000 C   0  0  0  0  0  0  0  0  0  0  0  0
   -1.1886    0.0553    0.0000 O   0  0  0  0  0  0  0  0  0  0  0  0
   -1.9031    0.4678    0.0000 C   0  0  0  0  0  0  0  0  0  0  0  0
    3.0982    1.7053    0.0000 N   0  0  0  0  0  0  0  0  0  0  0  0
    3.0982    2.5303    0.0000 C   0  0  0  0  0  0  0  0  0  0  0  0
    3.8127    2.9428    0.0000 C   0  0  0  0  0  0  0  0  0  0  0  0
    4.5272    2.5303    0.0000 C   0  0  0  0  0  0  0  0  0  0  0  0
    4.5272    1.7053    0.0000 C   0  0  0  0  0  0  0  0  0  0  0  0
    3.8127    1.2928    0.0000 C   0  0  0  0  0  0  0  0  0  0  0  0
    5.3522    2.5303    0.0000 F   0  0  0  0  0  0  0  0  0  0  0  0
    4.9400    3.2447    0.0000 F   0  0  0  0  0  0  0  0  0  0  0  0
  1  2  1  0      
  2  3  2  0      
  3  4  1  0      
  4  5  2  0      
  5  6  1  0      
  6  7  2  0      
  7  8  1  0      
  8  9  2  0      
  9 10  1  0      
  1 10  2  0      
  5 10  1  0      
  4 11  1  0      
 13 14  1  0      
 14 15  1  0      
 12 13  1  0      
 16 17  1  0      
 17 18  1  0      
 18 19  1  0      
 19 20  1  0      
 16 20  1  0      
 15 16  1  0      
  8 12  1  0      
 21 22  1  0      
 22 23  1  0      
 23 24  1  0      
 24 25  1  0      
 25 26  1  0      
 21 26  1  0      
 27 28  1  0      
 27 29  1  0      
 21 27  1  0      
 11 24  1  0      
 30 31  1  0      
  7 30  1  0      
 32 33  1  0      
 33 34  1  0      
 34 35  1  0      
 35 36  1  0      
 36 37  1  0      
 32 37  1  0      
 35 38  1  0      
 35 39  1  0      
  2 32  1  0      
M  END

>  <RackCode>
HYCPK72336

>  <Cat. No.>
HY-13980

>  <Product Name>
UNC0642

>  <ROW>
B

>  <COLUMN>
16

>  <CAS No.>
1481677-78-4

>  <MWt>
546.70

>  <Target>
Histone Methyltransferase

>  <Saltdate>
Free Base

>  <Smiles>
CC(N1CCC(NC2=C3C=C(OC)C(OCCCN4CCCC4)=CC3=NC(N5CCC(F)(F)CC5)=N2)CC1)C

>  <Solvent>
DMSO Solution

>  <Batch No.>
65291

>  <Quantity>
10mM  * 50uL

>  <Pathway>
Epigenetics

>  <Synonyms>


>  <Formula>
C29H44F2N6O2

>  <Research_Area>
Cancer

>  <Clinical_Information>
No Development Reported

>  <SUPPLIER>
MedChemExpress

$$$$
Untitled Document
  ChemDraw09291913192D

 35 34  0  0  0  0  0  0  0  0999 V2000
   -2.8578    2.9924    0.0000 C   0  0  0  0  0  0  0  0  0  0  0  0
   -2.1433    3.4049    0.0000 N   0  0  0  0  0  0  0  0  0  0  0  0
   -2.8578    2.1675    0.0000 C   0  0  0  0  0  0  0  0  0  0  0  0
   -3.5723    3.4049    0.0000 O   0  0  0  0  0  0  0  0  0  0  0  0
   -3.5723    1.7549    0.0000 C   0  0  0  0  0  0  0  0  0  0  0  0
   -3.5723    0.9299    0.0000 C   0  0  0  0  0  0  0  0  0  0  0  0
   -2.8578    0.5174    0.0000 N   0  0  0  0  0  0  0  0  0  0  0  0
   -2.1433    0.9299    0.0000 C   0  0  0  0  0  0  0  0  0  0  0  0
   -2.1433    1.7549    0.0000 C   0  0  0  0  0  0  0  0  0  0  0  0
   -1.4289    0.5174    0.0000 C   0  0  0  0  0  0  0  0  0  0  0  0
   -0.7145    0.9299    0.0000 N   0  0  0  0  0  0  0  0  0  0  0  0
   -0.7145    1.7549    0.0000 C   0  0  0  0  0  0  0  0  0  0  0  0
   -0.0000    2.1675    0.0000 C   0  0  0  0  0  0  0  0  0  0  0  0
   -0.0000    2.9924    0.0000 O   0  0  0  0  0  0  0  0  0  0  0  0
    0.7145    1.7549    0.0000 N   0  0  0  0  0  0  0  0  0  0  0  0
    1.4289    2.1675    0.0000 C   0  0  0  0  0  0  0  0  0  0  0  0
    0.7145    0.9299    0.0000 C   0  0  0  0  0  0  0  0  0  0  0  0
    1.4289    0.5174    0.0000 C   0  0  0  0  0  0  0  0  0  0  0  0
    2.1433    1.7549    0.0000 C   0  0  0  0  0  0  0  0  0  0  0  0
    2.8578    2.1675    0.0000 N   0  0  0  0  0  0  0  0  0  0  0  0
    3.5723    1.7549    0.0000 C   0  0  0  0  0  0  0  0  0  0  0  0
    2.8578    2.9924    0.0000 C   0  0  0  0  0  0  0  0  0  0  0  0
   -2.5151   -2.9924    0.0000 O   0  0  0  0  0  0  0  0  0  0  0  0
   -1.8006   -2.5799    0.0000 C   0  0  0  0  0  0  0  0  0  0  0  0
   -1.8006   -1.7549    0.0000 O   0  0  0  0  0  0  0  0  0  0  0  0
   -1.0861   -2.9924    0.0000 C   0  0  0  0  0  0  0  0  0  0  0  0
   -0.3717   -2.5799    0.0000 C   0  0  0  0  0  0  0  0  0  0  0  0
    0.3428   -2.9924    0.0000 C   0  0  0  0  0  0  0  0  0  0  0  0
   -0.3717   -1.7549    0.0000 C   0  0  0  0  0  0  0  0  0  0  0  0
    0.3428   -1.3424    0.0000 O   0  0  0  0  0  0  0  0  0  0  0  0
   -1.0861   -1.3424    0.0000 O   0  0  0  0  0  0  0  0  0  0  0  0
   -0.3717   -3.4049    0.0000 O   0  0  0  0  0  0  0  0  0  0  0  0
    1.0573   -2.5799    0.0000 C   0  0  0  0  0  0  0  0  0  0  0  0
    1.7717   -2.9924    0.0000 O   0  0  0  0  0  0  0  0  0  0  0  0
    1.0573   -1.7549    0.0000 O   0  0  0  0  0  0  0  0  0  0  0  0
  1  2  1  0      
  1  3  1  0      
  1  4  2  0      
  3  5  2  0      
  5  6  1  0      
  6  7  2  0      
  7  8  1  0      
  8  9  2  0      
  9  3  1  0      
  8 10  1  0      
 10 11  1  0      
 11 12  1  0      
 12 13  1  0      
 13 14  2  0      
 13 15  1  0      
 15 16  1  0      
 15 17  1  0      
 17 18  1  0      
 16 19  1  0      
 19 20  1  0      
 20 21  1  0      
 20 22  1  0      
 23 24  1  0      
 24 25  2  0      
 24 26  1  0      
 26 27  1  0      
 27 28  1  0      
 27 29  1  0      
 29 30  1  0      
 29 31  2  0      
 27 32  1  0      
 28 33  1  0      
 33 34  1  0      
 33 35  2  0      
M  END

>  <RackCode>
HYCPK72336

>  <Cat. No.>
HY-102047B

>  <Product Name>
KDOAM-25 (citrate)

>  <ROW>
C

>  <COLUMN>
16

>  <CAS No.>
2448475-08-7

>  <MWt>
499.51

>  <Target>
Histone Demethylase

>  <Saltdate>
Citrate

>  <Smiles>
NC(C1=CC=NC(CNCC(N(CC)CCN(C)C)=O)=C1)=O.OC(CC(C(O)=O)(O)CC(O)=O)=O

>  <Solvent>
DMSO Solution

>  <Batch No.>
246995

>  <Quantity>
10mM  * 50uL

>  <Pathway>
Epigenetics

>  <Synonyms>


>  <Formula>
C21H33N5O9

>  <Research_Area>
Cancer

>  <Clinical_Information>
No Development Reported

>  <SUPPLIER>
MedChemExpress

$$$$
Untitled Document
  ChemDraw07231309222D

 17 19  0  0  0  0  0  0  0  0999 V2000
    0.5870    1.2359    0.0000 C   0  0  0  0  0  0  0  0  0  0  0  0
    1.0719    0.5685    0.0000 O   0  0  0  0  0  0  0  0  0  0  0  0
    0.5870   -0.0990    0.0000 C   0  0  0  0  0  0  0  0  0  0  0  0
   -0.1976    0.1560    0.0000 C   0  0  0  0  0  0  0  0  0  0  0  0
   -0.9121   -0.2565    0.0000 C   0  0  0  0  0  0  0  0  0  0  0  0
   -1.6266    0.1560    0.0000 C   0  0  0  0  0  0  0  0  0  0  0  0
   -1.6266    0.9810    0.0000 C   0  0  0  0  0  0  0  0  0  0  0  0
   -0.9121    1.3935    0.0000 C   0  0  0  0  0  0  0  0  0  0  0  0
   -0.1976    0.9810    0.0000 C   0  0  0  0  0  0  0  0  0  0  0  0
    0.8419    2.0205    0.0000 O   0  0  0  0  0  0  0  0  0  0  0  0
   -0.9121    2.2185    0.0000 C   0  0  0  0  0  0  0  0  0  0  0  0
   -0.1114   -0.6645    0.0000 C   0  0  0  0  0  0  0  0  0  0  0  0
    0.8419   -2.2185    0.0000 O   0  0  0  0  0  0  0  0  0  0  0  0
    0.3570   -1.5510    0.0000 C   0  0  0  0  0  0  0  0  0  0  0  0
    0.8419   -0.8836    0.0000 C   0  0  0  0  0  0  0  0  0  0  0  0
    1.6266   -1.1385    0.0000 C   0  0  0  0  0  0  0  0  0  0  0  0
    1.6266   -1.9635    0.0000 C   0  0  0  0  0  0  0  0  0  0  0  0
  1  2  1  0      
  2  3  1  0      
  3  4  1  0      
  4  5  1  0      
  5  6  1  0      
  6  7  1  0      
  7  8  1  0      
  8  9  2  0      
  4  9  1  0      
  1  9  1  0      
  1 10  2  0      
  8 11  1  0      
  4 12  1  1      
 13 14  1  0      
 14 15  2  0      
 15 16  1  0      
 16 17  2  0      
 13 17  1  0      
  3 15  1  1      
M  END

>  <RackCode>
HYCPK72336

>  <Cat. No.>
HY-N0242

>  <Product Name>
Fraxinellone

>  <ROW>
D

>  <COLUMN>
16

>  <CAS No.>
28808-62-0

>  <MWt>
232.28

>  <Target>
HIF/HIF Prolyl-Hydroxylase; PD-1/PD-L1; STAT

>  <Saltdate>
Free Base

>  <Smiles>
O=C1O[C@@H](C2=COC=C2)[C@]3(C)CCCC(C)=C31

>  <Solvent>
DMSO Solution

>  <Batch No.>
110471

>  <Quantity>
10mM  * 50uL

>  <Pathway>
Immunology/Inflammation; JAK/STAT Signaling; Metabolic Enzyme/Protease; Stem Cell/Wnt

>  <Synonyms>


>  <Formula>
C14H16O3

>  <Research_Area>
Cancer; Inflammation/Immunology

>  <Clinical_Information>
No Development Reported

>  <SUPPLIER>
MedChemExpress

$$$$
Untitled Document
  ChemDraw01062109002D

 12 13  0  0  0  0  0  0  0  0999 V2000
    0.3572   -1.2375    0.0000 N   0  0  0  0  0  0  0  0  0  0  0  0
    1.0717   -0.8250    0.0000 C   0  0  0  0  0  0  0  0  0  0  0  0
    1.0717    0.0000    0.0000 N   0  0  0  0  0  0  0  0  0  0  0  0
    0.3572    0.4125    0.0000 C   0  0  0  0  0  0  0  0  0  0  0  0
   -0.3572    0.0000    0.0000 C   0  0  0  0  0  0  0  0  0  0  0  0
   -1.0717    0.4125    0.0000 C   0  0  0  0  0  0  0  0  0  0  0  0
   -1.7861    0.0000    0.0000 C   0  0  0  0  0  0  0  0  0  0  0  0
   -1.7861   -0.8250    0.0000 C   0  0  0  0  0  0  0  0  0  0  0  0
   -1.0717   -1.2375    0.0000 C   0  0  0  0  0  0  0  0  0  0  0  0
   -0.3572   -0.8250    0.0000 C   0  0  0  0  0  0  0  0  0  0  0  0
    0.3572    1.2375    0.0000 O   0  0  0  0  0  0  0  0  0  0  0  0
    1.7861   -1.2375    0.0000 C   0  0  0  0  0  0  0  0  0  0  0  0
  1  2  2  0      
  2  3  1  0      
  3  4  1  0      
  4  5  1  0      
  5  6  1  0      
  6  7  2  0      
  7  8  1  0      
  8  9  2  0      
  9 10  1  0      
  1 10  1  0      
  5 10  2  0      
  4 11  2  0      
  2 12  1  0      
M  END

>  <RackCode>
HYCPK72336

>  <Cat. No.>
HY-W051513

>  <Product Name>
2-Methylquinazolin-4-ol

>  <ROW>
E

>  <COLUMN>
16

>  <CAS No.>
1769-24-0

>  <MWt>
160.17

>  <Target>
PARP

>  <Saltdate>


>  <Smiles>
O=C1NC(C)=NC2=C1C=CC=C2

>  <Solvent>
DMSO Solution

>  <Batch No.>
111194

>  <Quantity>
10mM  * 50uL

>  <Pathway>
Cell Cycle/DNA Damage; Epigenetics

>  <Synonyms>


>  <Formula>
C9H8N2O

>  <Research_Area>
Others

>  <Clinical_Information>
No Development Reported

>  <SUPPLIER>
MedChemExpress

$$$$
Untitled Document
  ChemDraw03202014282D

 14 15  0  0  0  0  0  0  0  0999 V2000
    0.7145   -0.2062    0.0000 C   0  0  0  0  0  0  0  0  0  0  0  0
    1.4289   -0.6187    0.0000 C   0  0  0  0  0  0  0  0  0  0  0  0
    1.4289   -1.4437    0.0000 C   0  0  0  0  0  0  0  0  0  0  0  0
    0.7145   -1.8563    0.0000 C   0  0  0  0  0  0  0  0  0  0  0  0
    0.0000   -1.4437    0.0000 C   0  0  0  0  0  0  0  0  0  0  0  0
   -0.7145   -1.8563    0.0000 C   0  0  0  0  0  0  0  0  0  0  0  0
   -1.4289   -1.4437    0.0000 C   0  0  0  0  0  0  0  0  0  0  0  0
   -1.4289   -0.6187    0.0000 C   0  0  0  0  0  0  0  0  0  0  0  0
   -0.7145   -0.2062    0.0000 C   0  0  0  0  0  0  0  0  0  0  0  0
    0.0000   -0.6187    0.0000 C   0  0  0  0  0  0  0  0  0  0  0  0
    0.7145    0.6187    0.0000 C   0  0  0  0  0  0  0  0  0  0  0  0
    0.0000    1.0313    0.0000 O   0  0  0  0  0  0  0  0  0  0  0  0
    1.4289    1.0313    0.0000 N   0  0  0  0  0  0  0  0  0  0  0  0
    1.4289    1.8563    0.0000 O   0  0  0  0  0  0  0  0  0  0  0  0
  1  2  1  0      
  2  3  2  0      
  3  4  1  0      
  4  5  2  0      
  5  6  1  0      
  6  7  2  0      
  7  8  1  0      
  8  9  2  0      
  9 10  1  0      
  1 10  2  0      
  5 10  1  0      
 11 12  2  0      
 11 13  1  0      
  1 11  1  0      
 13 14  1  0      
M  END

>  <RackCode>
HYCPK72336

>  <Cat. No.>
HY-130538

>  <Product Name>
1-Naphthohydroxamic acid

>  <ROW>
F

>  <COLUMN>
16

>  <CAS No.>
6953-61-3

>  <MWt>
187.19

>  <Target>
HDAC

>  <Saltdate>


>  <Smiles>
O=C(C1=C2C=CC=CC2=CC=C1)NO

>  <Solvent>
DMSO Solution

>  <Batch No.>
61588

>  <Quantity>
10mM  * 50uL

>  <Pathway>
Cell Cycle/DNA Damage; Epigenetics

>  <Synonyms>


>  <Formula>
C11H9NO2

>  <Research_Area>
Cancer

>  <Clinical_Information>
No Development Reported

>  <SUPPLIER>
MedChemExpress

$$$$
Untitled Document
  ChemDraw09062110362D

 31 35  0  0  0  0  0  0  0  0999 V2000
    1.9127    3.7530    0.0000 O   0  0  0  0  0  0  0  0  0  0  0  0
    2.3252    3.0385    0.0000 C   0  0  0  0  0  0  0  0  0  0  0  0
    1.9127    2.3240    0.0000 N   0  0  0  0  0  0  0  0  0  0  0  0
    1.0877    2.3240    0.0000 C   0  0  0  0  0  0  0  0  0  0  0  0
    0.6028    2.9915    0.0000 N   0  0  0  0  0  0  0  0  0  0  0  0
   -0.1818    2.7365    0.0000 C   0  0  0  0  0  0  0  0  0  0  0  0
   -0.8963    3.1490    0.0000 C   0  0  0  0  0  0  0  0  0  0  0  0
   -1.6108    2.7365    0.0000 C   0  0  0  0  0  0  0  0  0  0  0  0
   -1.6108    1.9115    0.0000 C   0  0  0  0  0  0  0  0  0  0  0  0
   -0.8963    1.4990    0.0000 C   0  0  0  0  0  0  0  0  0  0  0  0
   -0.8963    0.6740    0.0000 C   0  0  0  0  0  0  0  0  0  0  0  0
   -0.1818    0.2615    0.0000 C   0  0  0  0  0  0  0  0  0  0  0  0
   -0.1818   -0.5635    0.0000 C   0  0  0  0  0  0  0  0  0  0  0  0
   -0.8963   -0.9760    0.0000 C   0  0  0  0  0  0  0  0  0  0  0  0
   -1.6108   -0.5635    0.0000 C   0  0  0  0  0  0  0  0  0  0  0  0
   -2.3252   -0.9760    0.0000 F   0  0  0  0  0  0  0  0  0  0  0  0
   -1.6108    0.2615    0.0000 C   0  0  0  0  0  0  0  0  0  0  0  0
   -0.8963   -1.8010    0.0000 C   0  0  0  0  0  0  0  0  0  0  0  0
   -1.6108   -2.2135    0.0000 N   0  0  0  0  0  0  0  0  0  0  0  0
   -1.6108   -3.0385    0.0000 C   0  0  0  0  0  0  0  0  0  0  0  0
   -2.3252   -3.4510    0.0000 C   0  0  0  0  0  0  0  0  0  0  0  0
   -3.0397   -3.0385    0.0000 S   0  0  0  0  0  0  0  0  0  0  0  0
   -3.8647   -3.0385    0.0000 O   0  0  0  0  0  0  0  0  0  0  0  0
   -3.4522   -3.7530    0.0000 O   0  0  0  0  0  0  0  0  0  0  0  0
   -3.0397   -2.2135    0.0000 C   0  0  0  0  0  0  0  0  0  0  0  0
   -2.3252   -1.8010    0.0000 C   0  0  0  0  0  0  0  0  0  0  0  0
   -0.1818    1.9115    0.0000 N   0  0  0  0  0  0  0  0  0  0  0  0
    0.6028    1.6566    0.0000 C   0  0  0  0  0  0  0  0  0  0  0  0
    3.1502    3.0385    0.0000 C   0  0  0  0  0  0  0  0  0  0  0  0
    3.8647    3.4510    0.0000 C   0  0  0  0  0  0  0  0  0  0  0  0
    3.8647    2.6260    0.0000 C   0  0  0  0  0  0  0  0  0  0  0  0
  1  2  2  0      
  2  3  1  0      
  3  4  1  0      
  4  5  1  0      
  5  6  2  0      
  6  7  1  0      
  7  8  2  0      
  8  9  1  0      
  9 10  2  0      
 10 11  1  0      
 11 12  1  0      
 12 13  2  0      
 13 14  1  0      
 14 15  2  0      
 15 16  1  0      
 15 17  1  0      
 11 17  2  0      
 14 18  1  0      
 18 19  1  0      
 19 20  1  0      
 20 21  1  0      
 21 22  1  0      
 22 23  2  0      
 22 24  2  0      
 22 25  1  0      
 25 26  1  0      
 19 26  1  0      
 10 27  1  0      
  6 27  1  0      
 27 28  1  0      
  4 28  2  0      
  2 29  1  0      
 29 30  1  0      
 30 31  1  0      
 29 31  1  0      
M  END

>  <RackCode>
HYCPK72336

>  <Cat. No.>
HY-139423

>  <Product Name>
JAK1-IN-8

>  <ROW>
G

>  <COLUMN>
16

>  <CAS No.>
1973485-18-5

>  <MWt>
442.51

>  <Target>
JAK

>  <Saltdate>


>  <Smiles>
O=C(C1CC1)NC2=CN3C(C4=CC(F)=C(CN5CCS(=O)(CC5)=O)C=C4)=CC=CC3=N2

>  <Solvent>
DMSO Solution

>  <Batch No.>
114739

>  <Quantity>
10mM  * 50uL

>  <Pathway>
Epigenetics; JAK/STAT Signaling; Protein Tyrosine Kinase/RTK; Stem Cell/Wnt

>  <Synonyms>


>  <Formula>
C22H23FN4O3S

>  <Research_Area>
Cancer; Inflammation/Immunology

>  <Clinical_Information>
No Development Reported

>  <SUPPLIER>
MedChemExpress

$$$$
Untitled Document
  ChemDraw10181611282D

 31 35  0  0  0  0  0  0  0  0999 V2000
    0.9545    3.2257    0.0000 C   0  0  0  0  0  0  0  0  0  0  0  0
    0.6995    2.4411    0.0000 N   0  0  0  0  0  0  0  0  0  0  0  0
    1.2531    1.8271    0.0000 C   0  0  0  0  0  0  0  0  0  0  0  0
    2.0622    1.9983    0.0000 C   0  0  0  0  0  0  0  0  0  0  0  0
    2.3172    2.7834    0.0000 C   0  0  0  0  0  0  0  0  0  0  0  0
    1.7631    3.3967    0.0000 C   0  0  0  0  0  0  0  0  0  0  0  0
    0.9986    1.0422    0.0000 C   0  0  0  0  0  0  0  0  0  0  0  0
    1.5466    0.4303    0.0000 N   0  0  0  0  0  0  0  0  0  0  0  0
    1.3806   -0.3777    0.0000 C   0  0  0  0  0  0  0  0  0  0  0  0
    2.0907   -0.7892    0.0000 C   0  0  0  0  0  0  0  0  0  0  0  0
    2.7047   -0.2353    0.0000 N   0  0  0  0  0  0  0  0  0  0  0  0
    2.3707    0.5182    0.0000 C   0  0  0  0  0  0  0  0  0  0  0  0
    0.1949    0.8695    0.0000 C   0  0  0  0  0  0  0  0  0  0  0  0
    2.7823    1.2279    0.0000 O   0  0  0  0  0  0  0  0  0  0  0  0
    0.6626   -0.7893    0.0000 C   0  0  0  0  0  0  0  0  0  0  0  0
    0.6654   -1.6155    0.0000 C   0  0  0  0  0  0  0  0  0  0  0  0
    1.3805   -2.0287    0.0000 N   0  0  0  0  0  0  0  0  0  0  0  0
    2.0934   -1.6154    0.0000 C   0  0  0  0  0  0  0  0  0  0  0  0
   -0.0530   -0.3760    0.0000 C   0  0  0  0  0  0  0  0  0  0  0  0
   -0.7659   -0.7894    0.0000 C   0  0  0  0  0  0  0  0  0  0  0  0
   -0.7685   -1.6137    0.0000 C   0  0  0  0  0  0  0  0  0  0  0  0
   -0.0529   -2.0270    0.0000 C   0  0  0  0  0  0  0  0  0  0  0  0
   -1.4756   -0.3779    0.0000 O   0  0  0  0  0  0  0  0  0  0  0  0
   -1.4809   -2.0272    0.0000 C   0  0  0  0  0  0  0  0  0  0  0  0
   -2.2324   -1.6867    0.0000 C   0  0  0  0  0  0  0  0  0  0  0  0
   -2.7823   -2.3037    0.0000 O   0  0  0  0  0  0  0  0  0  0  0  0
   -2.3690   -3.0164    0.0000 N   0  0  0  0  0  0  0  0  0  0  0  0
   -1.5654   -2.8436    0.0000 C   0  0  0  0  0  0  0  0  0  0  0  0
   -1.4800    0.4434    0.0000 C   0  0  0  0  0  0  0  0  0  0  0  0
   -2.4054   -0.8835    0.0000 C   0  0  0  0  0  0  0  0  0  0  0  0
   -0.9561   -3.3967    0.0000 C   0  0  0  0  0  0  0  0  0  0  0  0
  1  2  2  0      
  2  3  1  0      
  3  4  2  0      
  4  5  1  0      
  5  6  2  0      
  6  1  1  0      
  3  7  1  0      
  7  8  1  0      
  8  9  1  0      
  9 10  2  0      
 10 11  1  0      
 11 12  1  0      
 12  8  1  0      
  7 13  1  6      
 12 14  2  0      
  9 15  1  0      
 15 16  2  0      
 16 17  1  0      
 17 18  2  0      
 18 10  1  0      
 15 19  1  0      
 19 20  2  0      
 20 21  1  0      
 21 22  2  0      
 22 16  1  0      
 20 23  1  0      
 21 24  1  0      
 24 25  2  0      
 25 26  1  0      
 26 27  1  0      
 27 28  2  0      
 28 24  1  0      
 23 29  1  0      
 25 30  1  0      
 28 31  1  0      
M  END

>  <RackCode>
HYCPK72336

>  <Cat. No.>
HY-13235

>  <Product Name>
I-BET151

>  <ROW>
H

>  <COLUMN>
16

>  <CAS No.>
1300031-49-5

>  <MWt>
415.44

>  <Target>
Epigenetic Reader Domain

>  <Saltdate>
Free Base

>  <Smiles>
C[C@@H](N1C(C(C=C(OC)C(C2=C(C)ON=C2C)=C3)=C3N=C4)=C4NC1=O)C5=CC=CC=N5

>  <Solvent>
DMSO Solution

>  <Batch No.>
09018

>  <Quantity>
10mM  * 50uL

>  <Pathway>
Epigenetics

>  <Synonyms>
GSK1210151A

>  <Formula>
C23H21N5O3

>  <Research_Area>
Cancer

>  <Clinical_Information>
No Development Reported

>  <SUPPLIER>
MedChemExpress

$$$$
Untitled Document
  ChemDraw11252213082D

 29 30  0  0  0  0  0  0  0  0999 V2000
   -2.5006   -1.3910    0.0000 C   0  0  0  0  0  0  0  0  0  0  0  0
   -1.7862   -0.9785    0.0000 C   0  0  0  0  0  0  0  0  0  0  0  0
   -1.0717   -1.3910    0.0000 O   0  0  0  0  0  0  0  0  0  0  0  0
   -0.3572   -0.9785    0.0000 C   0  0  0  0  0  0  0  0  0  0  0  0
   -0.3572   -0.1535    0.0000 C   0  0  0  0  0  0  0  0  0  0  0  0
    0.3572    0.2590    0.0000 C   0  0  0  0  0  0  0  0  0  0  0  0
    1.0717   -0.1535    0.0000 C   0  0  0  0  0  0  0  0  0  0  0  0
    1.0717   -0.9785    0.0000 C   0  0  0  0  0  0  0  0  0  0  0  0
    0.3572   -1.3910    0.0000 C   0  0  0  0  0  0  0  0  0  0  0  0
    1.7862    0.2590    0.0000 C   0  0  0  0  0  0  0  0  0  0  0  0
    2.5006   -0.1535    0.0000 C   0  0  0  0  0  0  0  0  0  0  0  0
    3.2151    0.2590    0.0000 C   0  0  0  0  0  0  0  0  0  0  0  0
    3.9296   -0.1535    0.0000 C   0  0  0  0  0  0  0  0  0  0  0  0
    2.5006   -0.9785    0.0000 C   0  0  0  0  0  0  0  0  0  0  0  0
    3.2151   -1.3910    0.0000 C   0  0  0  0  0  0  0  0  0  0  0  0
    3.2151   -2.2160    0.0000 C   0  0  0  0  0  0  0  0  0  0  0  0
    2.5006   -2.6285    0.0000 C   0  0  0  0  0  0  0  0  0  0  0  0
    1.7862   -2.2160    0.0000 C   0  0  0  0  0  0  0  0  0  0  0  0
    1.7862   -1.3910    0.0000 C   0  0  0  0  0  0  0  0  0  0  0  0
    1.7862    1.0840    0.0000 C   0  0  0  0  0  0  0  0  0  0  0  0
    1.0717    1.4965    0.0000 C   0  0  0  0  0  0  0  0  0  0  0  0
    1.0717    2.3215    0.0000 C   0  0  0  0  0  0  0  0  0  0  0  0
    1.7862    2.7340    0.0000 C   0  0  0  0  0  0  0  0  0  0  0  0
    2.5006    2.3215    0.0000 C   0  0  0  0  0  0  0  0  0  0  0  0
    2.5006    1.4965    0.0000 C   0  0  0  0  0  0  0  0  0  0  0  0
   -3.2151   -0.9785    0.0000 N   0  0  0  0  0  0  0  0  0  0  0  0
   -3.9296   -1.3910    0.0000 C   0  0  0  0  0  0  0  0  0  0  0  0
    0.0704   -2.7340    0.0000 H   0  0  0  0  0  0  0  0  0  0  0  0
    0.8954   -2.7340    0.0000 Cl  0  0  0  0  0  0  0  0  0  0  0  0
  1  2  1  0      
  4  5  1  0      
  5  6  2  0      
  6  7  1  0      
  7  8  2  0      
  8  9  1  0      
  4  9  2  0      
  3  4  1  0      
 10 11  2  0      
 11 12  1  0      
 12 13  1  0      
 14 15  1  0      
 15 16  2  0      
 16 17  1  0      
 17 18  2  0      
 18 19  1  0      
 14 19  2  0      
 11 14  1  0      
 20 21  1  0      
 21 22  2  0      
 22 23  1  0      
 23 24  2  0      
 24 25  1  0      
 20 25  2  0      
 10 20  1  0      
  7 10  1  0      
  2  3  1  0      
  1 26  1  0      
 26 27  1  0      
 28 29  1  0      
M  END

>  <RackCode>
HYCPK72336

>  <Cat. No.>
HY-129099A

>  <Product Name>
N-Desmethyltamoxifen (hydrochloride)

>  <ROW>
I

>  <COLUMN>
16

>  <CAS No.>
15917-65-4

>  <MWt>
393.95

>  <Target>
Drug Metabolite; Endogenous Metabolite; Estrogen Receptor/ERR; PKC

>  <Saltdate>
Hydrochloride

>  <Smiles>
CC/C(C1=CC=CC=C1)=C(C2=CC=C(OCCNC)C=C2)\C3=CC=CC=C3.[H]Cl

>  <Solvent>
DMSO Solution

>  <Batch No.>
58801

>  <Quantity>
10mM  * 50uL

>  <Pathway>
Epigenetics; Metabolic Enzyme/Protease; TGF-beta/Smad; Vitamin D Related/Nuclear Receptor

>  <Synonyms>


>  <Formula>
C25H28ClNO

>  <Research_Area>
Cancer

>  <Clinical_Information>
No Development Reported

>  <SUPPLIER>
MedChemExpress

$$$$
Untitled Document
  ChemDraw03031617402D

 34 38  0  0  0  0  0  0  0  0999 V2000
    2.3284   -0.8079    0.0000 C   0  0  0  0  0  0  0  0  0  0  0  0
    1.8842   -1.5031    0.0000 C   0  0  0  0  0  0  0  0  0  0  0  0
    1.0601   -1.4660    0.0000 C   0  0  0  0  0  0  0  0  0  0  0  0
    0.6159   -2.1613    0.0000 C   0  0  0  0  0  0  0  0  0  0  0  0
    0.9959   -2.8935    0.0000 C   0  0  0  0  0  0  0  0  0  0  0  0
    1.8200   -2.9306    0.0000 C   0  0  0  0  0  0  0  0  0  0  0  0
    2.2642   -2.2354    0.0000 C   0  0  0  0  0  0  0  0  0  0  0  0
    1.9484   -0.0756    0.0000 O   0  0  0  0  0  0  0  0  0  0  0  0
    3.1526   -0.8449    0.0000 O   0  0  0  0  0  0  0  0  0  0  0  0
   -0.2083   -2.1242    0.0000 C   0  0  0  0  0  0  0  0  0  0  0  0
   -0.5883   -1.3919    0.0000 N   0  0  0  0  0  0  0  0  0  0  0  0
   -0.2192   -0.6541    0.0000 C   0  0  0  0  0  0  0  0  0  0  0  0
   -0.8069   -0.0751    0.0000 C   0  0  0  0  0  0  0  0  0  0  0  0
   -1.5392   -0.4550    0.0000 C   0  0  0  0  0  0  0  0  0  0  0  0
   -2.3115   -0.1651    0.0000 C   0  0  0  0  0  0  0  0  0  0  0  0
   -2.9488   -0.6890    0.0000 C   0  0  0  0  0  0  0  0  0  0  0  0
   -2.8137   -1.5029    0.0000 C   0  0  0  0  0  0  0  0  0  0  0  0
   -2.0413   -1.7928    0.0000 C   0  0  0  0  0  0  0  0  0  0  0  0
   -1.4041   -1.2689    0.0000 C   0  0  0  0  0  0  0  0  0  0  0  0
    0.5947   -0.5190    0.0000 O   0  0  0  0  0  0  0  0  0  0  0  0
   -0.6839    0.7407    0.0000 C   0  0  0  0  0  0  0  0  0  0  0  0
    0.0988    1.0015    0.0000 C   0  0  0  0  0  0  0  0  0  0  0  0
    0.7160    0.4540    0.0000 C   0  0  0  0  0  0  0  0  0  0  0  0
    1.4987    0.7148    0.0000 C   0  0  0  0  0  0  0  0  0  0  0  0
    1.6643    1.5230    0.0000 C   0  0  0  0  0  0  0  0  0  0  0  0
    1.0471    2.0705    0.0000 C   0  0  0  0  0  0  0  0  0  0  0  0
    0.2644    1.8097    0.0000 C   0  0  0  0  0  0  0  0  0  0  0  0
   -1.3010    1.2882    0.0000 C   0  0  0  0  0  0  0  0  0  0  0  0
   -1.1355    2.0964    0.0000 C   0  0  0  0  0  0  0  0  0  0  0  0
   -1.7527    2.6439    0.0000 C   0  0  0  0  0  0  0  0  0  0  0  0
   -2.5354    2.3831    0.0000 C   0  0  0  0  0  0  0  0  0  0  0  0
   -2.7009    1.5749    0.0000 C   0  0  0  0  0  0  0  0  0  0  0  0
   -2.0838    1.0274    0.0000 C   0  0  0  0  0  0  0  0  0  0  0  0
   -3.1526    2.9306    0.0000 Cl  0  0  0  0  0  0  0  0  0  0  0  0
  1  2  1  0      
  2  3  1  0      
  3  4  2  0      
  4  5  1  0      
  5  6  2  0      
  6  7  1  0      
  2  7  2  0      
  1  8  2  0      
  1  9  1  0      
 11 12  1  0      
 12 13  1  0      
 13 14  1  0      
 14 15  1  0      
 15 16  2  0      
 16 17  1  0      
 17 18  2  0      
 18 19  1  0      
 11 19  1  0      
 14 19  2  0      
 12 20  2  0      
 22 23  1  0      
 23 24  2  0      
 24 25  1  0      
 25 26  2  0      
 26 27  1  0      
 22 27  2  0      
 21 22  1  0      
 28 29  1  0      
 29 30  2  0      
 30 31  1  0      
 31 32  2  0      
 32 33  1  0      
 28 33  2  0      
 31 34  1  0      
 21 28  1  0      
 13 21  2  0      
 10 11  1  0      
  4 10  1  0      
M  END

>  <RackCode>
HYCPK72336

>  <Cat. No.>
HY-15840

>  <Product Name>
YLF-466D

>  <ROW>
J

>  <COLUMN>
16

>  <CAS No.>
1273323-67-3

>  <MWt>
465.93

>  <Target>
AMPK

>  <Saltdate>
Free Acid

>  <Smiles>
O=C(O)C1=CC=CC(CN2C(/C(C3=C2C=CC=C3)=C(C4=CC=C(Cl)C=C4)\C5=CC=CC=C5)=O)=C1

>  <Solvent>
DMSO Solution

>  <Batch No.>
10946

>  <Quantity>
10mM  * 50uL

>  <Pathway>
Epigenetics; PI3K/Akt/mTOR

>  <Synonyms>
C24

>  <Formula>
C29H20ClNO3

>  <Research_Area>
Cancer

>  <Clinical_Information>
No Development Reported

>  <SUPPLIER>
MedChemExpress

$$$$
Untitled Document
  ChemDraw05101917272D

 42 46  0  0  0  0  0  0  0  0999 V2000
    5.0013    1.0312    0.0000 O   0  0  0  0  0  0  0  0  0  0  0  0
    5.0013    0.2062    0.0000 C   0  0  0  0  0  0  0  0  0  0  0  0
    4.2868   -0.2063    0.0000 C   0  0  0  0  0  0  0  0  0  0  0  0
    4.2868   -1.0313    0.0000 C   0  0  0  0  0  0  0  0  0  0  0  0
    3.5724   -1.4438    0.0000 C   0  0  0  0  0  0  0  0  0  0  0  0
    2.8579   -1.0313    0.0000 C   0  0  0  0  0  0  0  0  0  0  0  0
    2.8579   -0.2062    0.0000 C   0  0  0  0  0  0  0  0  0  0  0  0
    3.5724    0.2062    0.0000 C   0  0  0  0  0  0  0  0  0  0  0  0
    2.1434   -1.4437    0.0000 N   0  0  0  0  0  0  0  0  0  0  0  0
    1.4289   -1.0313    0.0000 C   0  0  0  0  0  0  0  0  0  0  0  0
    1.4289   -0.2062    0.0000 C   0  0  0  0  0  0  0  0  0  0  0  0
    2.1434    0.2062    0.0000 F   0  0  0  0  0  0  0  0  0  0  0  0
    0.7145    0.2062    0.0000 C   0  0  0  0  0  0  0  0  0  0  0  0
    0.0000   -0.2063    0.0000 N   0  0  0  0  0  0  0  0  0  0  0  0
    0.0000   -1.0313    0.0000 C   0  0  0  0  0  0  0  0  0  0  0  0
   -0.7145   -1.4438    0.0000 N   0  0  0  0  0  0  0  0  0  0  0  0
   -1.4289   -1.0313    0.0000 C   0  0  0  0  0  0  0  0  0  0  0  0
   -2.1434   -1.4438    0.0000 C   0  0  0  0  0  0  0  0  0  0  0  0
   -2.8579   -1.0313    0.0000 C   0  0  0  0  0  0  0  0  0  0  0  0
   -2.8579   -0.2062    0.0000 C   0  0  0  0  0  0  0  0  0  0  0  0
   -2.1434    0.2062    0.0000 C   0  0  0  0  0  0  0  0  0  0  0  0
   -1.4289   -0.2063    0.0000 C   0  0  0  0  0  0  0  0  0  0  0  0
   -3.5724    0.2062    0.0000 C   0  0  0  0  0  0  0  0  0  0  0  0
   -4.2868   -0.2062    0.0000 C   0  0  0  0  0  0  0  0  0  0  0  0
   -5.0013    0.2062    0.0000 N   0  0  0  0  0  0  0  0  0  0  0  0
   -5.7158   -0.2062    0.0000 C   0  0  0  0  0  0  0  0  0  0  0  0
   -6.4302    0.2062    0.0000 C   0  0  0  0  0  0  0  0  0  0  0  0
   -6.4302    1.0313    0.0000 N   0  0  0  0  0  0  0  0  0  0  0  0
   -5.7158    1.4438    0.0000 C   0  0  0  0  0  0  0  0  0  0  0  0
   -5.0013    1.0313    0.0000 C   0  0  0  0  0  0  0  0  0  0  0  0
   -7.1447    1.4438    0.0000 C   0  0  0  0  0  0  0  0  0  0  0  0
   -7.8592    1.0313    0.0000 C   0  0  0  0  0  0  0  0  0  0  0  0
   -4.2868   -1.0313    0.0000 O   0  0  0  0  0  0  0  0  0  0  0  0
    0.7145   -1.4437    0.0000 N   0  0  0  0  0  0  0  0  0  0  0  0
    5.7158   -0.2063    0.0000 N   0  0  0  0  0  0  0  0  0  0  0  0
    6.4302    0.2062    0.0000 C   0  0  0  0  0  0  0  0  0  0  0  0
    7.1447   -0.2063    0.0000 C   0  0  0  0  0  0  0  0  0  0  0  0
    7.8592    0.2062    0.0000 C   0  0  0  0  0  0  0  0  0  0  0  0
    7.8592    1.0312    0.0000 C   0  0  0  0  0  0  0  0  0  0  0  0
    7.1447    1.4437    0.0000 C   0  0  0  0  0  0  0  0  0  0  0  0
    6.4302    1.0312    0.0000 C   0  0  0  0  0  0  0  0  0  0  0  0
    5.7158    1.4437    0.0000 Cl  0  0  0  0  0  0  0  0  0  0  0  0
  1  2  2  0      
  2  3  1  0      
  3  4  2  0      
  4  5  1  0      
  5  6  2  0      
  6  7  1  0      
  7  8  2  0      
  3  8  1  0      
  6  9  1  0      
  9 10  1  0      
 10 11  2  0      
 11 12  1  0      
 11 13  1  0      
 13 14  2  0      
 14 15  1  0      
 15 16  1  0      
 16 17  1  0      
 17 18  2  0      
 18 19  1  0      
 19 20  2  0      
 20 21  1  0      
 21 22  2  0      
 17 22  1  0      
 20 23  1  0      
 23 24  1  0      
 24 25  1  0      
 25 26  1  0      
 26 27  1  0      
 27 28  1  0      
 28 29  1  0      
 29 30  1  0      
 25 30  1  0      
 28 31  1  0      
 31 32  1  0      
 24 33  2  0      
 15 34  2  0      
 10 34  1  0      
  2 35  1  0      
 35 36  1  0      
 36 37  2  0      
 37 38  1  0      
 38 39  2  0      
 39 40  1  0      
 40 41  2  0      
 36 41  1  0      
 41 42  1  0      
M  END

>  <RackCode>
HYCPK72336

>  <Cat. No.>
HY-70061

>  <Product Name>
TCS7010

>  <ROW>
K

>  <COLUMN>
16

>  <CAS No.>
1158838-45-9

>  <MWt>
588.08

>  <Target>
Apoptosis; Aurora Kinase

>  <Saltdate>
Free Base

>  <Smiles>
O=C(C1=CC=C(C=C1)NC2=C(F)C=NC(NC3=CC=C(C=C3)CC(N4CCN(CC4)CC)=O)=N2)NC5=CC=CC=C5Cl

>  <Solvent>
DMSO Solution

>  <Batch No.>
02165

>  <Quantity>
10mM  * 50uL

>  <Pathway>
Apoptosis; Cell Cycle/DNA Damage; Epigenetics

>  <Synonyms>


>  <Formula>
C31H31ClFN7O2

>  <Research_Area>
Cancer

>  <Clinical_Information>
No Development Reported

>  <SUPPLIER>
MedChemExpress

$$$$
Untitled Document
  ChemDraw07181709362D

 44 48  0  0  0  0  0  0  0  0999 V2000
    1.4234    1.2229    0.0000 C   0  0  0  0  0  0  0  0  0  0  0  0
    0.7091    0.8080    0.0000 O   0  0  0  0  0  0  0  0  0  0  0  0
    0.7091   -0.8160    0.0000 C   0  0  0  0  0  0  0  0  0  0  0  0
   -0.0031   -1.2229    0.0000 C   0  0  0  0  0  0  0  0  0  0  0  0
   -0.7174   -0.8160    0.0000 O   0  0  0  0  0  0  0  0  0  0  0  0
   -1.4317   -1.2229    0.0000 C   0  0  0  0  0  0  0  0  0  0  0  0
   -2.1439   -0.8119    0.0000 C   0  0  0  0  0  0  0  0  0  0  0  0
   -2.1439    0.0158    0.0000 C   0  0  0  0  0  0  0  0  0  0  0  0
   -1.4296    0.4227    0.0000 C   0  0  0  0  0  0  0  0  0  0  0  0
   -2.8561   -1.2229    0.0000 C   0  0  0  0  0  0  0  0  0  0  0  0
   -2.8561   -2.0584    0.0000 C   0  0  0  0  0  0  0  0  0  0  0  0
   -2.1439   -2.4772    0.0000 C   0  0  0  0  0  0  0  0  0  0  0  0
   -1.4317   -2.0584    0.0000 O   0  0  0  0  0  0  0  0  0  0  0  0
   -3.5704   -2.4772    0.0000 C   0  0  0  0  0  0  0  0  0  0  0  0
   -3.5704   -3.2969    0.0000 O   0  0  0  0  0  0  0  0  0  0  0  0
   -4.2826   -2.0584    0.0000 O   0  0  0  0  0  0  0  0  0  0  0  0
   -4.2826   -1.2229    0.0000 C   0  0  0  0  0  0  0  0  0  0  0  0
   -3.5704   -0.8119    0.0000 C   0  0  0  0  0  0  0  0  0  0  0  0
   -2.8561   -0.4032    0.0000 H   0  0  0  0  0  0  0  0  0  0  0  0
   -0.0031   -2.0506    0.0000 O   0  0  0  0  0  0  0  0  0  0  0  0
    0.7091   -2.4634    0.0000 C   0  0  0  0  0  0  0  0  0  0  0  0
    1.4255   -2.0506    0.0000 C   0  0  0  0  0  0  0  0  0  0  0  0
    1.4255   -1.2229    0.0000 C   0  0  0  0  0  0  0  0  0  0  0  0
    2.1397   -0.8160    0.0000 O   0  0  0  0  0  0  0  0  0  0  0  0
    2.1397   -2.4634    0.0000 O   0  0  0  0  0  0  0  0  0  0  0  0
    0.7091   -3.2912    0.0000 C   0  0  0  0  0  0  0  0  0  0  0  0
    1.4234   -3.6980    0.0000 O   0  0  0  0  0  0  0  0  0  0  0  0
   -0.0031   -0.4032    0.0000 H   0  0  0  0  0  0  0  0  0  0  0  0
    1.4234    2.0506    0.0000 O   0  0  0  0  0  0  0  0  0  0  0  0
    2.1397    0.8080    0.0000 C   0  0  0  0  0  0  0  0  0  0  0  0
    2.8520    1.2229    0.0000 C   0  0  0  0  0  0  0  0  0  0  0  0
    3.5683    0.8080    0.0000 C   0  0  0  0  0  0  0  0  0  0  0  0
    3.5683   -0.0117    0.0000 C   0  0  0  0  0  0  0  0  0  0  0  0
    2.8520   -0.4245    0.0000 C   0  0  0  0  0  0  0  0  0  0  0  0
    2.1397   -0.0117    0.0000 C   0  0  0  0  0  0  0  0  0  0  0  0
    1.4234   -0.4245    0.0000 O   0  0  0  0  0  0  0  0  0  0  0  0
    4.2826   -0.4245    0.0000 O   0  0  0  0  0  0  0  0  0  0  0  0
    2.8520    2.0506    0.0000 C   0  0  0  0  0  0  0  0  0  0  0  0
    2.1356    2.4634    0.0000 C   0  0  0  0  0  0  0  0  0  0  0  0
    2.1356    3.2831    0.0000 C   0  0  0  0  0  0  0  0  0  0  0  0
    1.4213    3.6980    0.0000 O   0  0  0  0  0  0  0  0  0  0  0  0
    2.8520    3.6980    0.0000 C   0  0  0  0  0  0  0  0  0  0  0  0
    3.5642    3.2831    0.0000 C   0  0  0  0  0  0  0  0  0  0  0  0
    3.5642    2.4634    0.0000 C   0  0  0  0  0  0  0  0  0  0  0  0
  1  2  1  0      
  1 29  2  0      
  1 30  1  0      
  3  2  1  6      
  3  4  1  0      
  3 23  1  0      
  4  5  1  0      
  4 20  1  0      
  4 28  1  6      
  6  5  1  6      
  6  7  1  0      
  6 13  1  0      
  7  8  1  1      
  7 10  1  0      
  8  9  2  0      
 10 11  1  0      
 10 18  1  0      
 10 19  1  6      
 12 11  2  0      
 11 14  1  0      
 13 12  1  0      
 14 15  2  0      
 14 16  1  0      
 17 16  1  0      
 18 17  1  0      
 20 21  1  0      
 22 21  1  0      
 21 26  1  1      
 23 22  1  0      
 22 25  1  6      
 23 24  1  1      
 26 27  1  0      
 30 31  2  0      
 30 35  1  0      
 31 32  1  0      
 31 38  1  0      
 32 33  2  0      
 34 33  1  0      
 33 37  1  0      
 35 34  2  0      
 35 36  1  0      
 38 39  2  0      
 38 44  1  0      
 39 40  1  0      
 40 41  1  0      
 40 42  2  0      
 43 42  1  0      
 44 43  2  0      
M  END

>  <RackCode>
HYCPK72336

>  <Cat. No.>
HY-N2447

>  <Product Name>
Amarogentin

>  <ROW>
L

>  <COLUMN>
16

>  <CAS No.>
21018-84-8

>  <MWt>
586.54

>  <Target>
AMPK; Apoptosis

>  <Saltdate>
Free Base

>  <Smiles>
C=C[C@H]([C@@]1([H])C(C(OCC1)=O)=CO2)[C@@H]2O[C@@](O[C@H](CO)[C@@H](O)[C@@H]3O)([H])[C@@H]3OC(C4=C(C5=CC(O)=CC=C5)C=C(O)C=C4O)=O

>  <Solvent>
DMSO Solution

>  <Batch No.>
104028

>  <Quantity>
10mM  * 50uL

>  <Pathway>
Apoptosis; Epigenetics; PI3K/Akt/mTOR

>  <Synonyms>


>  <Formula>
C29H30O13

>  <Research_Area>
Cancer; Metabolic Disease

>  <Clinical_Information>
No Development Reported

>  <SUPPLIER>
MedChemExpress

$$$$
Untitled Document
  ChemDraw09211608522D

 18 20  0  0  0  0  0  0  0  0999 V2000
   -2.1278    0.8038    0.0000 C   0  0  0  0  0  0  0  0  0  0  0  0
   -2.1278   -0.0212    0.0000 C   0  0  0  0  0  0  0  0  0  0  0  0
   -1.4133   -0.4337    0.0000 C   0  0  0  0  0  0  0  0  0  0  0  0
   -0.6989   -0.0212    0.0000 C   0  0  0  0  0  0  0  0  0  0  0  0
   -0.6989    0.8038    0.0000 C   0  0  0  0  0  0  0  0  0  0  0  0
   -1.4133    1.2163    0.0000 C   0  0  0  0  0  0  0  0  0  0  0  0
    0.0156   -0.4337    0.0000 C   0  0  0  0  0  0  0  0  0  0  0  0
    0.7301   -0.0212    0.0000 C   0  0  0  0  0  0  0  0  0  0  0  0
    0.7301    0.8038    0.0000 C   0  0  0  0  0  0  0  0  0  0  0  0
    0.0156    1.2163    0.0000 C   0  0  0  0  0  0  0  0  0  0  0  0
    0.0156    2.0413    0.0000 O   0  0  0  0  0  0  0  0  0  0  0  0
    0.1871   -1.2406    0.0000 N   0  0  0  0  0  0  0  0  0  0  0  0
    1.4446    1.2163    0.0000 O   0  0  0  0  0  0  0  0  0  0  0  0
    1.0076   -1.3269    0.0000 C   0  0  0  0  0  0  0  0  0  0  0  0
    1.3432   -0.5732    0.0000 C   0  0  0  0  0  0  0  0  0  0  0  0
    2.1278   -0.8281    0.0000 C   0  0  0  0  0  0  0  0  0  0  0  0
    1.9563   -0.0212    0.0000 C   0  0  0  0  0  0  0  0  0  0  0  0
    1.4201   -2.0413    0.0000 O   0  0  0  0  0  0  0  0  0  0  0  0
  1  2  1  0      
  2  3  2  0      
  3  4  1  0      
  4  5  2  0      
  5  6  1  0      
  6  1  2  0      
  4  7  1  0      
  7  8  1  0      
  8  9  2  0      
  9 10  1  0      
 10  5  1  0      
 10 11  2  0      
  7 12  2  0      
  9 13  1  0      
 12 14  1  0      
 14 15  1  0      
 15  8  1  0      
 15 16  1  0      
 15 17  1  0      
 14 18  2  0      
M  END

>  <RackCode>
HYCPK72336

>  <Cat. No.>
HY-100625

>  <Product Name>
BVT948

>  <ROW>
M

>  <COLUMN>
16

>  <CAS No.>
39674-97-0

>  <MWt>
241.24

>  <Target>
Cytochrome P450; Histone Methyltransferase; Phosphatase

>  <Saltdate>
Free Base

>  <Smiles>
O=C1C(O)=C2C(C3=C1C=CC=C3)=NC(C2(C)C)=O

>  <Solvent>
DMSO Solution

>  <Batch No.>
127459

>  <Quantity>
10mM  * 50uL

>  <Pathway>
Epigenetics; Metabolic Enzyme/Protease

>  <Synonyms>


>  <Formula>
C14H11NO3

>  <Research_Area>
Cancer

>  <Clinical_Information>
No Development Reported

>  <SUPPLIER>
MedChemExpress

$$$$
Untitled Document
  ChemDraw04101716322D

 12 12  0  0  0  0  0  0  0  0999 V2000
   -1.1877    0.4732    0.0000 C   0  0  0  0  0  0  0  0  0  0  0  0
   -0.8863   -0.2947    0.0000 C   0  0  0  0  0  0  0  0  0  0  0  0
   -0.0979   -0.5379    0.0000 C   0  0  0  0  0  0  0  0  0  0  0  0
    0.5837   -0.0732    0.0000 C   0  0  0  0  0  0  0  0  0  0  0  0
    0.6454    0.7495    0.0000 C   0  0  0  0  0  0  0  0  0  0  0  0
    0.0406    1.3107    0.0000 C   0  0  0  0  0  0  0  0  0  0  0  0
   -0.7752    1.1877    0.0000 C   0  0  0  0  0  0  0  0  0  0  0  0
   -2.0127    0.4732    0.0000 O   0  0  0  0  0  0  0  0  0  0  0  0
    1.2982   -0.4857    0.0000 C   0  0  0  0  0  0  0  0  0  0  0  0
    1.2982   -1.3107    0.0000 C   0  0  0  0  0  0  0  0  0  0  0  0
    2.0127   -0.0732    0.0000 C   0  0  0  0  0  0  0  0  0  0  0  0
   -1.4474   -0.8995    0.0000 O   0  0  0  0  0  0  0  0  0  0  0  0
  1  2  1  0      
  2  3  2  0      
  3  4  1  0      
  4  5  2  0      
  5  6  1  0      
  6  7  2  0      
  1  7  1  0      
  1  8  2  0      
  9 10  1  0      
  9 11  1  0      
  4  9  1  0      
  2 12  1  0      
M  END

>  <RackCode>
HYCPK72336

>  <Cat. No.>
HY-B2230

>  <Product Name>
Hinokitiol

>  <ROW>
N

>  <COLUMN>
16

>  <CAS No.>
499-44-5

>  <MWt>
164.20

>  <Target>
DNA Methyltransferase; Keap1-Nrf2; Virus Protease

>  <Saltdate>
Free Base

>  <Smiles>
O=C1C(O)=CC(C(C)C)=CC=C1

>  <Solvent>
DMSO Solution

>  <Batch No.>
43649

>  <Quantity>
10mM  * 50uL

>  <Pathway>
Anti-infection; Epigenetics; NF-¦ÊB

>  <Synonyms>
¦Â-Thujaplicin

>  <Formula>
C10H12O2

>  <Research_Area>
Cancer; Infection

>  <Clinical_Information>
No Development Reported

>  <SUPPLIER>
MedChemExpress

$$$$
Untitled Document
  ChemDraw12191615202D

 28 31  0  0  0  0  0  0  0  0999 V2000
   -1.0473    0.9085    0.0000 C   0  0  0  0  0  0  0  0  0  0  0  0
   -1.7616    1.3210    0.0000 C   0  0  0  0  0  0  0  0  0  0  0  0
   -1.7616    2.1459    0.0000 C   0  0  0  0  0  0  0  0  0  0  0  0
   -2.4761    2.5584    0.0000 C   0  0  0  0  0  0  0  0  0  0  0  0
   -3.1906    2.1459    0.0000 C   0  0  0  0  0  0  0  0  0  0  0  0
   -3.1906    1.3210    0.0000 C   0  0  0  0  0  0  0  0  0  0  0  0
   -2.4761    0.9085    0.0000 C   0  0  0  0  0  0  0  0  0  0  0  0
   -0.3328    1.3210    0.0000 O   0  0  0  0  0  0  0  0  0  0  0  0
   -1.0473    0.0835    0.0000 N   0  0  0  0  0  0  0  0  0  0  0  0
   -1.0473    2.5584    0.0000 O   0  0  0  0  0  0  0  0  0  0  0  0
   -0.3328    2.1459    0.0000 C   0  0  0  0  0  0  0  0  0  0  0  0
    2.3656   -0.7415    0.0000 C   0  0  0  0  0  0  0  0  0  0  0  0
    1.8807   -0.0741    0.0000 N   0  0  0  0  0  0  0  0  0  0  0  0
    1.0961   -0.3290    0.0000 C   0  0  0  0  0  0  0  0  0  0  0  0
    1.0961   -1.1540    0.0000 C   0  0  0  0  0  0  0  0  0  0  0  0
    1.8807   -1.4089    0.0000 N   0  0  0  0  0  0  0  0  0  0  0  0
    0.3817    0.0835    0.0000 C   0  0  0  0  0  0  0  0  0  0  0  0
   -0.3328   -0.3290    0.0000 C   0  0  0  0  0  0  0  0  0  0  0  0
   -0.3328   -1.1540    0.0000 C   0  0  0  0  0  0  0  0  0  0  0  0
    0.3817   -1.5665    0.0000 C   0  0  0  0  0  0  0  0  0  0  0  0
   -1.0473   -1.5665    0.0000 N   0  0  0  0  0  0  0  0  0  0  0  0
   -1.1335   -2.3869    0.0000 C   0  0  0  0  0  0  0  0  0  0  0  0
   -1.9404   -2.5584    0.0000 C   0  0  0  0  0  0  0  0  0  0  0  0
   -2.3529   -1.8439    0.0000 C   0  0  0  0  0  0  0  0  0  0  0  0
   -1.8008   -1.2309    0.0000 C   0  0  0  0  0  0  0  0  0  0  0  0
    3.1906   -0.7415    0.0000 O   0  0  0  0  0  0  0  0  0  0  0  0
    2.1356    0.7106    0.0000 C   0  0  0  0  0  0  0  0  0  0  0  0
    2.1356   -2.1935    0.0000 C   0  0  0  0  0  0  0  0  0  0  0  0
  1  2  1  0      
  2  3  1  0      
  3  4  2  0      
  4  5  1  0      
  5  6  2  0      
  6  7  1  0      
  2  7  2  0      
  1  8  2  0      
  1  9  1  0      
 10 11  1  0      
  3 10  1  0      
 12 13  1  0      
 13 14  1  0      
 14 15  1  0      
 15 16  1  0      
 12 16  1  0      
 17 18  1  0      
 18 19  2  0      
 19 20  1  0      
 15 20  2  0      
 14 17  2  0      
 21 22  1  0      
 22 23  1  0      
 23 24  1  0      
 24 25  1  0      
 21 25  1  0      
 19 21  1  0      
 12 26  2  0      
 13 27  1  0      
 16 28  1  0      
  9 18  1  0      
M  END

>  <RackCode>
HYCPK72336

>  <Cat. No.>
HY-18664

>  <Product Name>
PFI-4

>  <ROW>
O

>  <COLUMN>
16

>  <CAS No.>
900305-37-5

>  <MWt>
380.44

>  <Target>
Epigenetic Reader Domain

>  <Saltdate>
Free Base

>  <Smiles>
O=C(NC1=C(N2CCCC2)C=C(N3C)C(N(C)C3=O)=C1)C4=CC=CC=C4OC

>  <Solvent>
DMSO Solution

>  <Batch No.>
17657

>  <Quantity>
10mM  * 50uL

>  <Pathway>
Epigenetics

>  <Synonyms>


>  <Formula>
C21H24N4O3

>  <Research_Area>
Cancer

>  <Clinical_Information>
No Development Reported

>  <SUPPLIER>
MedChemExpress

$$$$
Untitled Document
  ChemDraw05101917272D

 27 30  0  0  0  0  0  0  0  0999 V2000
   -1.1514    0.8250    0.0000 C   0  0  0  0  0  0  0  0  0  0  0  0
   -0.4369    0.4125    0.0000 N   0  3  0  0  0  0  0  0  0  0  0  0
    0.2775    0.8250    0.0000 C   0  0  0  0  0  0  0  0  0  0  0  0
    0.9920    0.4125    0.0000 C   0  0  0  0  0  0  0  0  0  0  0  0
    1.7065    0.8250    0.0000 C   0  0  0  0  0  0  0  0  0  0  0  0
    2.4209    0.4125    0.0000 C   0  0  0  0  0  0  0  0  0  0  0  0
    3.1354    0.8250    0.0000 O   0  0  0  0  0  0  0  0  0  0  0  0
    3.8499    0.4125    0.0000 C   0  0  0  0  0  0  0  0  0  0  0  0
    2.4209   -0.4125    0.0000 C   0  0  0  0  0  0  0  0  0  0  0  0
    1.7065   -0.8250    0.0000 C   0  0  0  0  0  0  0  0  0  0  0  0
    0.9920   -0.4125    0.0000 C   0  0  0  0  0  0  0  0  0  0  0  0
    0.2775   -0.8250    0.0000 C   0  0  0  0  0  0  0  0  0  0  0  0
   -0.4369   -0.4125    0.0000 C   0  0  0  0  0  0  0  0  0  0  0  0
   -1.1514   -0.8250    0.0000 C   0  0  0  0  0  0  0  0  0  0  0  0
   -1.8659   -0.4125    0.0000 C   0  0  0  0  0  0  0  0  0  0  0  0
   -2.5803   -0.8250    0.0000 C   0  0  0  0  0  0  0  0  0  0  0  0
   -2.5803   -1.6500    0.0000 C   0  0  0  0  0  0  0  0  0  0  0  0
   -3.3650   -1.9049    0.0000 O   0  0  0  0  0  0  0  0  0  0  0  0
   -3.8499   -1.2375    0.0000 C   0  0  0  0  0  0  0  0  0  0  0  0
   -3.3650   -0.5701    0.0000 O   0  0  0  0  0  0  0  0  0  0  0  0
   -1.8659   -2.0625    0.0000 C   0  0  0  0  0  0  0  0  0  0  0  0
   -1.1514   -1.6500    0.0000 C   0  0  0  0  0  0  0  0  0  0  0  0
   -0.4369   -2.0625    0.0000 C   0  0  0  0  0  0  0  0  0  0  0  0
    0.2775   -1.6500    0.0000 C   0  0  0  0  0  0  0  0  0  0  0  0
    1.7065    1.6500    0.0000 O   0  0  0  0  0  0  0  0  0  0  0  0
    2.4209    2.0625    0.0000 C   0  0  0  0  0  0  0  0  0  0  0  0
   -0.4369    1.2375    0.0000 Cl  0  5  0  0  0  0  0  0  0  0  0  0
  1  2  1  0      
  2  3  2  0      
  3  4  1  0      
  4  5  2  0      
  5  6  1  0      
  6  7  1  0      
  7  8  1  0      
  6  9  2  0      
  9 10  1  0      
 10 11  2  0      
  4 11  1  0      
 11 12  1  0      
 12 13  2  0      
  2 13  1  0      
 13 14  1  0      
 14 15  2  0      
 15 16  1  0      
 16 17  2  0      
 17 18  1  0      
 18 19  1  0      
 19 20  1  0      
 16 20  1  0      
 17 21  1  0      
 21 22  2  0      
 14 22  1  0      
 22 23  1  0      
 23 24  2  0      
 12 24  1  0      
  5 25  1  0      
 25 26  1  0      
M  CHG  2   2   1  27  -1
M  END

>  <RackCode>
HYCPK72336

>  <Cat. No.>
HY-12048

>  <Product Name>
Chelerythrine (chloride)

>  <ROW>
P

>  <COLUMN>
16

>  <CAS No.>
3895-92-9

>  <MWt>
383.82

>  <Target>
Apoptosis; Autophagy; Bcl-2 Family; PKC

>  <Saltdate>
Chloride

>  <Smiles>
C[N+]1=CC2=C(C(OC)=CC=C2C3=C1C4=CC5=C(OCO5)C=C4C=C3)OC.[Cl-]

>  <Solvent>
DMSO Solution

>  <Batch No.>
61998

>  <Quantity>
10mM  * 50uL

>  <Pathway>
Apoptosis; Autophagy; Epigenetics; TGF-beta/Smad

>  <Synonyms>


>  <Formula>
C21H18ClNO4

>  <Research_Area>
Cancer; Metabolic Disease; Inflammation/Immunology

>  <Clinical_Information>
No Development Reported

>  <SUPPLIER>
MedChemExpress

$$$$
Untitled Document
  ChemDraw08282010472D

 22 23  0  0  0  0  0  0  0  0999 V2000
   -1.7862    0.0000    0.0000 C   0  0  0  0  0  0  0  0  0  0  0  0
   -1.7862    0.8250    0.0000 C   0  0  0  0  0  0  0  0  0  0  0  0
   -2.5006    1.2375    0.0000 C   0  0  0  0  0  0  0  0  0  0  0  0
   -3.2151    0.8250    0.0000 C   0  0  0  0  0  0  0  0  0  0  0  0
   -3.2151    0.0000    0.0000 C   0  0  0  0  0  0  0  0  0  0  0  0
   -2.5006   -0.4125    0.0000 C   0  0  0  0  0  0  0  0  0  0  0  0
   -0.3572    0.8250    0.0000 C   0  0  0  0  0  0  0  0  0  0  0  0
   -0.3572    0.0000    0.0000 C   0  0  0  0  0  0  0  0  0  0  0  0
   -1.0717   -0.4125    0.0000 C   0  0  0  0  0  0  0  0  0  0  0  0
   -0.3572    1.6500    0.0000 N   0  0  0  0  0  0  0  0  0  0  0  0
   -1.0717   -1.2375    0.0000 O   0  0  0  0  0  0  0  0  0  0  0  0
    0.3572   -0.4125    0.0000 N   0  0  0  0  0  0  0  0  0  0  0  0
    1.0717    0.0000    0.0000 N   0  0  0  0  0  0  0  0  0  0  0  0
    1.7862   -0.4125    0.0000 C   0  0  0  0  0  0  0  0  0  0  0  0
    2.5006    0.0000    0.0000 C   0  0  0  0  0  0  0  0  0  0  0  0
    3.2151   -0.4125    0.0000 C   0  0  0  0  0  0  0  0  0  0  0  0
    3.2151   -1.2375    0.0000 C   0  0  0  0  0  0  0  0  0  0  0  0
    2.5006   -1.6500    0.0000 C   0  0  0  0  0  0  0  0  0  0  0  0
    1.7862   -1.2375    0.0000 C   0  0  0  0  0  0  0  0  0  0  0  0
    3.9296   -1.6500    0.0000 F   0  0  0  0  0  0  0  0  0  0  0  0
    3.9296    0.0000    0.0000 Cl  0  0  0  0  0  0  0  0  0  0  0  0
   -3.9296    1.2375    0.0000 Cl  0  0  0  0  0  0  0  0  0  0  0  0
  1  2  1  0      
  2  3  2  0      
  3  4  1  0      
  4  5  2  0      
  5  6  1  0      
  1  6  2  0      
  7  8  1  0      
  8  9  1  0      
  7 10  3  0      
  1  9  1  0      
  9 11  2  0      
 12 13  1  0      
 14 15  1  0      
 15 16  2  0      
 16 17  1  0      
 17 18  2  0      
 18 19  1  0      
 14 19  2  0      
 17 20  1  0      
 16 21  1  0      
 13 14  1  0      
  8 12  2  0      
  4 22  1  0      
M  END

>  <RackCode>
HYCPK72336

>  <Cat. No.>
HY-124858

>  <Product Name>
SC99

>  <ROW>
A

>  <COLUMN>
17

>  <CAS No.>
882290-02-0

>  <MWt>
336.15

>  <Target>
Apoptosis; JAK; STAT

>  <Saltdate>


>  <Smiles>
N#C/C(C(C1=CC=C(Cl)C=C1)=O)=N\NC2=CC=C(F)C(Cl)=C2

>  <Solvent>
DMSO Solution

>  <Batch No.>
81849

>  <Quantity>
10mM  * 50uL

>  <Pathway>
Apoptosis; Epigenetics; JAK/STAT Signaling; Protein Tyrosine Kinase/RTK; Stem Cell/Wnt

>  <Synonyms>


>  <Formula>
C15H8Cl2FN3O

>  <Research_Area>
Cancer; Cardiovascular Disease

>  <Clinical_Information>
No Development Reported

>  <SUPPLIER>
MedChemExpress

$$$$
Untitled Document
  ChemDraw12191617282D

 20 20  0  0  0  0  0  0  0  0999 V2000
   -2.8578   -0.4125    0.0000 C   0  0  0  0  0  0  0  0  0  0  0  0
   -2.1433    0.0000    0.0000 N   0  0  0  0  0  0  0  0  0  0  0  0
   -2.8578   -1.2375    0.0000 O   0  0  0  0  0  0  0  0  0  0  0  0
   -3.5723    0.0000    0.0000 O   0  0  0  0  0  0  0  0  0  0  0  0
   -1.4289   -0.4125    0.0000 C   0  0  0  0  0  0  0  0  0  0  0  0
   -0.7145    0.0000    0.0000 C   0  0  0  0  0  0  0  0  0  0  0  0
   -0.0000   -0.4125    0.0000 C   0  0  0  0  0  0  0  0  0  0  0  0
    0.7145    0.0000    0.0000 C   0  0  0  0  0  0  0  0  0  0  0  0
    1.4289   -0.4125    0.0000 N   0  0  0  0  0  0  0  0  0  0  0  0
    2.1433    0.0000    0.0000 C   0  0  0  0  0  0  0  0  0  0  0  0
    2.8578   -0.4125    0.0000 C   0  0  0  0  0  0  0  0  0  0  0  0
    3.5723    0.0000    0.0000 C   0  0  0  0  0  0  0  0  0  0  0  0
    3.5723    0.8250    0.0000 C   0  0  0  0  0  0  0  0  0  0  0  0
    4.2867    1.2375    0.0000 C   0  0  0  0  0  0  0  0  0  0  0  0
    5.0012    0.8250    0.0000 C   0  0  0  0  0  0  0  0  0  0  0  0
    5.0012    0.0000    0.0000 C   0  0  0  0  0  0  0  0  0  0  0  0
    4.2867   -0.4125    0.0000 C   0  0  0  0  0  0  0  0  0  0  0  0
    0.7145    0.8250    0.0000 O   0  0  0  0  0  0  0  0  0  0  0  0
   -4.2867   -0.4125    0.0000 C   0  0  0  0  0  0  0  0  0  0  0  0
   -5.0012    0.0000    0.0000 C   0  0  0  0  0  0  0  0  0  0  0  0
  1  2  1  0      
  1  3  2  0      
  1  4  1  0      
  5  6  1  0      
  6  7  1  0      
  7  8  1  0      
 10 11  1  0      
 12 13  1  0      
 13 14  2  0      
 14 15  1  0      
 15 16  2  0      
 16 17  1  0      
 12 17  2  0      
 11 12  1  0      
  9 10  1  0      
  8  9  1  0      
  8 18  2  0      
  2  5  1  0      
 19 20  1  0      
  4 19  1  0      
M  END

>  <RackCode>
HYCPK72336

>  <Cat. No.>
HY-N0931

>  <Product Name>
Santacruzamate A

>  <ROW>
B

>  <COLUMN>
17

>  <CAS No.>
1477949-42-0

>  <MWt>
278.35

>  <Target>
Amyloid-¦Â; HDAC

>  <Saltdate>
Free Base

>  <Smiles>
O=C(OCC)NCCCC(NCCC1=CC=CC=C1)=O

>  <Solvent>
DMSO Solution

>  <Batch No.>
17907

>  <Quantity>
10mM  * 50uL

>  <Pathway>
Cell Cycle/DNA Damage; Epigenetics; Neuronal Signaling

>  <Synonyms>
CAY-10683

>  <Formula>
C15H22N2O3

>  <Research_Area>
Cancer; Neurological Disease

>  <Clinical_Information>
No Development Reported

>  <SUPPLIER>
MedChemExpress

$$$$
Untitled Document
  ChemDraw11222118032D

 23 25  0  0  0  0  0  0  0  0999 V2000
   -0.0159    0.6661    0.0000 N   0  0  0  0  0  0  0  0  0  0  0  0
    0.4690   -0.0013    0.0000 C   0  0  0  0  0  0  0  0  0  0  0  0
   -0.0159   -0.6688    0.0000 N   0  0  0  0  0  0  0  0  0  0  0  0
   -0.8006   -0.4138    0.0000 C   0  0  0  0  0  0  0  0  0  0  0  0
   -0.8006    0.4112    0.0000 C   0  0  0  0  0  0  0  0  0  0  0  0
   -1.5150   -0.8263    0.0000 C   0  0  0  0  0  0  0  0  0  0  0  0
   -2.2295   -0.4138    0.0000 C   0  0  0  0  0  0  0  0  0  0  0  0
   -2.2295    0.4112    0.0000 C   0  0  0  0  0  0  0  0  0  0  0  0
   -1.5150    0.8237    0.0000 C   0  0  0  0  0  0  0  0  0  0  0  0
   -0.3130    2.0638    0.0000 C   0  0  0  0  0  0  0  0  0  0  0  0
    0.2390    1.4507    0.0000 C   0  0  0  0  0  0  0  0  0  0  0  0
    1.0460    1.6223    0.0000 C   0  0  0  0  0  0  0  0  0  0  0  0
    2.9440   -0.0013    0.0000 N   0  0  0  0  0  0  0  0  0  0  0  0
    2.5315   -0.7158    0.0000 C   0  0  0  0  0  0  0  0  0  0  0  0
    1.7065   -0.7158    0.0000 C   0  0  0  0  0  0  0  0  0  0  0  0
    1.2940   -0.0013    0.0000 C   0  0  0  0  0  0  0  0  0  0  0  0
    1.7065    0.7131    0.0000 C   0  0  0  0  0  0  0  0  0  0  0  0
    2.5315    0.7131    0.0000 C   0  0  0  0  0  0  0  0  0  0  0  0
   -1.5150   -1.6513    0.0000 N   0  3  0  0  0  0  0  0  0  0  0  0
   -0.8006   -2.0638    0.0000 O   0  0  0  0  0  0  0  0  0  0  0  0
   -2.2295   -2.0638    0.0000 O   0  5  0  0  0  0  0  0  0  0  0  0
   -2.9440    0.8237    0.0000 Br  0  0  0  0  0  0  0  0  0  0  0  0
   -2.9440   -0.8263    0.0000 Br  0  0  0  0  0  0  0  0  0  0  0  0
  1  2  1  0      
  2  3  2  0      
  3  4  1  0      
  4  5  1  0      
  1  5  1  0      
  6  7  1  0      
  7  8  2  0      
  8  9  1  0      
  5  9  2  0      
  4  6  2  0      
 10 11  1  0      
 11 12  1  0      
  1 11  1  0      
 13 14  1  0      
 14 15  1  0      
 15 16  1  0      
 16 17  1  0      
 17 18  1  0      
 13 18  1  0      
  2 16  1  0      
 19 20  2  0      
 19 21  1  0      
  6 19  1  0      
  8 22  1  0      
  7 23  1  0      
M  CHG  2  19   1  21  -1
M  END

>  <RackCode>
HYCPK72336

>  <Cat. No.>
HY-120758

>  <Product Name>
SEL24-B489

>  <ROW>
C

>  <COLUMN>
17

>  <CAS No.>
1616359-00-2

>  <MWt>
446.14

>  <Target>
Apoptosis; FLT3; Pim

>  <Saltdate>


>  <Smiles>
CC(N1C(C2CCNCC2)=NC3=C([N+]([O-])=O)C(Br)=C(Br)C=C31)C

>  <Solvent>
DMSO Solution

>  <Batch No.>
155179

>  <Quantity>
10mM  * 50uL

>  <Pathway>
Apoptosis; JAK/STAT Signaling; Protein Tyrosine Kinase/RTK

>  <Synonyms>


>  <Formula>
C15H18Br2N4O2

>  <Research_Area>
Cancer

>  <Clinical_Information>
No Development Reported

>  <SUPPLIER>
MedChemExpress

$$$$
Untitled Document
  ChemDraw04121715282D

 25 26  0  0  0  0  0  0  0  0999 V2000
   -2.4995   -0.2062    0.0000 C   0  0  0  0  0  0  0  0  0  0  0  0
   -1.7851    0.2063    0.0000 C   0  0  0  0  0  0  0  0  0  0  0  0
   -1.0717   -0.2062    0.0000 C   0  0  0  0  0  0  0  0  0  0  0  0
   -0.3572    0.2063    0.0000 C   0  0  0  0  0  0  0  0  0  0  0  0
    0.3572   -0.2062    0.0000 C   0  0  0  0  0  0  0  0  0  0  0  0
    1.0717    0.2063    0.0000 C   0  0  0  0  0  0  0  0  0  0  0  0
    1.7851   -0.2062    0.0000 C   0  0  0  0  0  0  0  0  0  0  0  0
    2.4995    0.2063    0.0000 C   0  0  0  0  0  0  0  0  0  0  0  0
   -2.4995   -1.0313    0.0000 O   0  0  0  0  0  0  0  0  0  0  0  0
   -3.2140    0.2063    0.0000 N   0  0  0  0  0  0  0  0  0  0  0  0
    2.4995    1.0313    0.0000 O   0  0  0  0  0  0  0  0  0  0  0  0
    3.2140   -0.2062    0.0000 N   0  0  0  0  0  0  0  0  0  0  0  0
    3.9285    0.2063    0.0000 C   0  0  0  0  0  0  0  0  0  0  0  0
    3.9285    1.0313    0.0000 C   0  0  0  0  0  0  0  0  0  0  0  0
    4.6430    1.4438    0.0000 C   0  0  0  0  0  0  0  0  0  0  0  0
    5.3563    1.0313    0.0000 C   0  0  0  0  0  0  0  0  0  0  0  0
    5.3563    0.2063    0.0000 C   0  0  0  0  0  0  0  0  0  0  0  0
    4.6430   -0.2062    0.0000 C   0  0  0  0  0  0  0  0  0  0  0  0
   -3.9285   -0.2062    0.0000 C   0  0  0  0  0  0  0  0  0  0  0  0
   -3.9285   -1.0313    0.0000 C   0  0  0  0  0  0  0  0  0  0  0  0
   -4.6430   -1.4438    0.0000 C   0  0  0  0  0  0  0  0  0  0  0  0
   -5.3563   -1.0313    0.0000 C   0  0  0  0  0  0  0  0  0  0  0  0
   -5.3563   -0.2062    0.0000 C   0  0  0  0  0  0  0  0  0  0  0  0
   -4.6430    0.2063    0.0000 C   0  0  0  0  0  0  0  0  0  0  0  0
   -3.2140   -1.4438    0.0000 N   0  0  0  0  0  0  0  0  0  0  0  0
  1  2  1  0      
  2  3  1  0      
  3  4  1  0      
  4  5  1  0      
  5  6  1  0      
  6  7  1  0      
  7  8  1  0      
  1  9  2  0      
  1 10  1  0      
  8 11  2  0      
  8 12  1  0      
 13 14  1  0      
 14 15  2  0      
 15 16  1  0      
 16 17  2  0      
 17 18  1  0      
 13 18  2  0      
 12 13  1  0      
 19 20  1  0      
 20 21  2  0      
 21 22  1  0      
 22 23  2  0      
 23 24  1  0      
 19 24  2  0      
 20 25  1  0      
 10 19  1  0      
M  END

>  <RackCode>
HYCPK72336

>  <Cat. No.>
HY-19350

>  <Product Name>
BML-210

>  <ROW>
D

>  <COLUMN>
17

>  <CAS No.>
537034-17-6

>  <MWt>
339.43

>  <Target>
Apoptosis; HDAC

>  <Saltdate>
Free Base

>  <Smiles>
O=C(NC1=CC=CC=C1N)CCCCCCC(NC2=CC=CC=C2)=O

>  <Solvent>
DMSO Solution

>  <Batch No.>
155741

>  <Quantity>
10mM  * 50uL

>  <Pathway>
Apoptosis; Cell Cycle/DNA Damage; Epigenetics

>  <Synonyms>


>  <Formula>
C20H25N3O2

>  <Research_Area>
Cancer

>  <Clinical_Information>
No Development Reported

>  <SUPPLIER>
MedChemExpress

$$$$
Untitled Document
  ChemDraw09041815162D

 20 22  0  0  0  0  0  0  0  0999 V2000
    2.0676   -0.2781    0.0000 O   0  0  0  0  0  0  0  0  0  0  0  0
    1.4842    0.3053    0.0000 C   0  0  0  0  0  0  0  0  0  0  0  0
    0.6592    0.3053    0.0000 C   0  0  0  0  0  0  0  0  0  0  0  0
    0.0758   -0.2781    0.0000 C   0  0  0  0  0  0  0  0  0  0  0  0
    0.0758   -1.1031    0.0000 C   0  0  0  0  0  0  0  0  0  0  0  0
    0.6592   -1.6865    0.0000 C   0  0  0  0  0  0  0  0  0  0  0  0
    1.4842   -1.6865    0.0000 C   0  0  0  0  0  0  0  0  0  0  0  0
    2.0676   -1.1031    0.0000 C   0  0  0  0  0  0  0  0  0  0  0  0
    0.2467    1.0197    0.0000 C   0  0  0  0  0  0  0  0  0  0  0  0
    0.6592    1.7342    0.0000 C   0  0  0  0  0  0  0  0  0  0  0  0
    1.4842    1.7342    0.0000 C   0  0  0  0  0  0  0  0  0  0  0  0
    1.8967    1.0197    0.0000 C   0  0  0  0  0  0  0  0  0  0  0  0
   -0.6386   -1.5156    0.0000 C   0  0  0  0  0  0  0  0  0  0  0  0
   -1.3531   -1.1031    0.0000 C   0  0  0  0  0  0  0  0  0  0  0  0
   -1.3531   -0.2781    0.0000 C   0  0  0  0  0  0  0  0  0  0  0  0
   -0.6386    0.1344    0.0000 C   0  0  0  0  0  0  0  0  0  0  0  0
    1.7999   -2.4487    0.0000 O   0  0  0  0  0  0  0  0  0  0  0  0
   -2.0676    0.1344    0.0000 O   0  0  0  0  0  0  0  0  0  0  0  0
   -2.0676   -1.5156    0.0000 O   0  0  0  0  0  0  0  0  0  0  0  0
    1.8967    2.4487    0.0000 O   0  0  0  0  0  0  0  0  0  0  0  0
  1  2  1  0      
  2  3  1  0      
  3  4  1  0      
  4  5  1  0      
  5  6  1  0      
  6  7  1  0      
  7  8  1  0      
  1  8  1  0      
  9 10  1  0      
 10 11  2  0      
 11 12  1  0      
 12  2  2  0      
  9  3  2  0      
 13 14  1  0      
 14 15  2  0      
 15 16  1  0      
 16  4  2  0      
 13  5  2  0      
  7 17  2  0      
 15 18  1  0      
 14 19  1  0      
 11 20  1  0      
M  END

>  <RackCode>
HYCPK72336

>  <Cat. No.>
HY-113573

>  <Product Name>
Protosappanin A

>  <ROW>
E

>  <COLUMN>
17

>  <CAS No.>
102036-28-2

>  <MWt>
272.25

>  <Target>
Interleukin Related; JAK; STAT

>  <Saltdate>
Free Base

>  <Smiles>
O=C1CC2=CC(O)=C(O)C=C2C3=CC=C(O)C=C3OC1

>  <Solvent>
DMSO Solution

>  <Batch No.>
112234

>  <Quantity>
10mM  * 50uL

>  <Pathway>
Epigenetics; Immunology/Inflammation; JAK/STAT Signaling; Protein Tyrosine Kinase/RTK; Stem Cell/Wnt

>  <Synonyms>
PTA

>  <Formula>
C15H12O5

>  <Research_Area>
Inflammation/Immunology

>  <Clinical_Information>
No Development Reported

>  <SUPPLIER>
MedChemExpress

$$$$
Untitled Document
  ChemDraw05101917272D

 38 43  0  0  0  0  0  0  0  0999 V2000
   -3.6236   -1.8853    0.0000 O   0  0  0  0  0  0  0  0  0  0  0  0
   -2.9091   -2.2978    0.0000 C   0  0  0  0  0  0  0  0  0  0  0  0
   -2.1946   -1.8853    0.0000 N   0  0  0  0  0  0  0  0  0  0  0  0
   -2.1946   -1.0603    0.0000 C   0  0  0  0  0  0  0  0  0  0  0  0
   -1.4802   -0.6478    0.0000 C   0  0  0  0  0  0  0  0  0  0  0  0
   -1.4802    0.1772    0.0000 C   0  0  0  0  0  0  0  0  0  0  0  0
   -0.7657    0.5897    0.0000 S   0  0  0  0  0  0  0  0  0  0  0  0
   -0.7657    1.4147    0.0000 C   0  0  0  0  0  0  0  0  0  0  0  0
   -1.4331    1.8996    0.0000 N   0  0  0  0  0  0  0  0  0  0  0  0
   -1.1782    2.6842    0.0000 N   0  0  0  0  0  0  0  0  0  0  0  0
   -0.3532    2.6842    0.0000 C   0  0  0  0  0  0  0  0  0  0  0  0
    0.1317    3.3517    0.0000 C   0  0  0  0  0  0  0  0  0  0  0  0
   -0.2038    4.1054    0.0000 C   0  0  0  0  0  0  0  0  0  0  0  0
    0.2811    4.7728    0.0000 C   0  0  0  0  0  0  0  0  0  0  0  0
    1.1016    4.6866    0.0000 N   0  0  0  0  0  0  0  0  0  0  0  0
    1.4371    3.9329    0.0000 C   0  0  0  0  0  0  0  0  0  0  0  0
    0.9522    3.2654    0.0000 C   0  0  0  0  0  0  0  0  0  0  0  0
   -0.0983    1.8996    0.0000 N   0  0  0  0  0  0  0  0  0  0  0  0
    0.6864    1.6447    0.0000 C   0  0  0  0  0  0  0  0  0  0  0  0
    1.2995    2.1967    0.0000 C   0  0  0  0  0  0  0  0  0  0  0  0
    2.0841    1.9418    0.0000 C   0  0  0  0  0  0  0  0  0  0  0  0
    2.2556    1.1348    0.0000 C   0  0  0  0  0  0  0  0  0  0  0  0
    3.0402    0.8799    0.0000 O   0  0  0  0  0  0  0  0  0  0  0  0
    3.6236    1.4632    0.0000 C   0  0  0  0  0  0  0  0  0  0  0  0
    1.6425    0.5828    0.0000 C   0  0  0  0  0  0  0  0  0  0  0  0
    0.8579    0.8377    0.0000 C   0  0  0  0  0  0  0  0  0  0  0  0
   -1.4802   -2.2978    0.0000 C   0  0  0  0  0  0  0  0  0  0  0  0
   -1.4802   -3.1228    0.0000 C   0  0  0  0  0  0  0  0  0  0  0  0
   -0.7657   -3.5353    0.0000 C   0  0  0  0  0  0  0  0  0  0  0  0
   -0.7657   -4.3603    0.0000 C   0  0  0  0  0  0  0  0  0  0  0  0
   -1.4802   -4.7728    0.0000 C   0  0  0  0  0  0  0  0  0  0  0  0
   -2.1946   -4.3603    0.0000 C   0  0  0  0  0  0  0  0  0  0  0  0
   -2.9091   -4.7728    0.0000 C   0  0  0  0  0  0  0  0  0  0  0  0
   -3.6236   -4.3603    0.0000 C   0  0  0  0  0  0  0  0  0  0  0  0
   -3.6236   -3.5353    0.0000 C   0  0  0  0  0  0  0  0  0  0  0  0
   -2.9091   -3.1228    0.0000 C   0  0  0  0  0  0  0  0  0  0  0  0
   -2.1946   -3.5353    0.0000 C   0  0  0  0  0  0  0  0  0  0  0  0
   -0.7657   -1.8853    0.0000 O   0  0  0  0  0  0  0  0  0  0  0  0
  1  2  2  0      
  2  3  1  0      
  3  4  1  0      
  4  5  1  0      
  5  6  1  0      
  6  7  1  0      
  7  8  1  0      
  8  9  2  0      
  9 10  1  0      
 10 11  2  0      
 11 12  1  0      
 12 13  2  0      
 13 14  1  0      
 14 15  2  0      
 15 16  1  0      
 16 17  2  0      
 12 17  1  0      
 11 18  1  0      
  8 18  1  0      
 18 19  1  0      
 19 20  2  0      
 20 21  1  0      
 21 22  2  0      
 22 23  1  0      
 23 24  1  0      
 22 25  1  0      
 25 26  2  0      
 19 26  1  0      
  3 27  1  0      
 27 28  1  0      
 28 29  2  0      
 29 30  1  0      
 30 31  2  0      
 31 32  1  0      
 32 33  2  0      
 33 34  1  0      
 34 35  2  0      
 35 36  1  0      
  2 36  1  0      
 36 37  2  0      
 28 37  1  0      
 32 37  1  0      
 27 38  2  0      
M  END

>  <RackCode>
HYCPK72336

>  <Cat. No.>
HY-16910

>  <Product Name>
WIKI4

>  <ROW>
F

>  <COLUMN>
17

>  <CAS No.>
838818-26-1

>  <MWt>
521.59

>  <Target>
PARP; ¦Â-catenin

>  <Saltdate>
Free Base

>  <Smiles>
O=C1N(CCCSC2=NN=C(C3=CC=NC=C3)N2C4=CC=C(OC)C=C4)C(C5=CC=CC6=CC=CC1=C56)=O

>  <Solvent>
DMSO Solution

>  <Batch No.>
16474

>  <Quantity>
10mM  * 50uL

>  <Pathway>
Cell Cycle/DNA Damage; Epigenetics; Stem Cell/Wnt

>  <Synonyms>


>  <Formula>
C29H23N5O3S

>  <Research_Area>
Cancer

>  <Clinical_Information>
No Development Reported

>  <SUPPLIER>
MedChemExpress

$$$$
Untitled Document
  ChemDraw11152116442D

 34 37  0  0  0  0  0  0  0  0999 V2000
   -2.1246    2.2281    0.0000 C   0  0  0  0  0  0  0  0  0  0  0  0
   -2.8390    1.8156    0.0000 N   0  0  0  0  0  0  0  0  0  0  0  0
   -3.5535    2.2281    0.0000 C   0  0  0  0  0  0  0  0  0  0  0  0
   -3.5535    3.0531    0.0000 C   0  0  0  0  0  0  0  0  0  0  0  0
   -2.8390    3.4656    0.0000 C   0  0  0  0  0  0  0  0  0  0  0  0
   -2.1246    3.0531    0.0000 N   0  0  0  0  0  0  0  0  0  0  0  0
   -1.3399    3.3080    0.0000 N   0  0  0  0  0  0  0  0  0  0  0  0
   -0.8550    2.6406    0.0000 C   0  0  0  0  0  0  0  0  0  0  0  0
   -1.3399    1.9731    0.0000 C   0  0  0  0  0  0  0  0  0  0  0  0
   -1.0850    1.1885    0.0000 C   0  0  0  0  0  0  0  0  0  0  0  0
   -1.6684    0.6051    0.0000 O   0  0  0  0  0  0  0  0  0  0  0  0
   -0.2881    0.9750    0.0000 N   0  0  0  0  0  0  0  0  0  0  0  0
   -0.1444   -1.1550    0.0000 N   0  0  0  0  0  0  0  0  0  0  0  0
    0.6524   -0.9414    0.0000 N   0  0  0  0  0  0  0  0  0  0  0  0
    0.6956   -0.1176    0.0000 C   0  0  0  0  0  0  0  0  0  0  0  0
   -0.0746    0.1781    0.0000 C   0  0  0  0  0  0  0  0  0  0  0  0
   -0.5938   -0.4631    0.0000 C   0  0  0  0  0  0  0  0  0  0  0  0
   -0.4401   -1.9252    0.0000 C   0  0  0  0  0  0  0  0  0  0  0  0
   -1.2549   -2.0542    0.0000 C   0  0  0  0  0  0  0  0  0  0  0  0
   -1.7741   -1.4131    0.0000 O   0  0  0  0  0  0  0  0  0  0  0  0
   -1.5506   -2.8244    0.0000 N   0  0  0  0  0  0  0  0  0  0  0  0
   -1.0314   -3.4656    0.0000 C   0  0  0  0  0  0  0  0  0  0  0  0
   -2.3654   -2.9535    0.0000 C   0  0  0  0  0  0  0  0  0  0  0  0
    1.4101    0.2949    0.0000 C   0  0  0  0  0  0  0  0  0  0  0  0
    2.1246   -0.1176    0.0000 C   0  0  0  0  0  0  0  0  0  0  0  0
    2.8390    0.2949    0.0000 C   0  0  0  0  0  0  0  0  0  0  0  0
    2.8390    1.1199    0.0000 C   0  0  0  0  0  0  0  0  0  0  0  0
    2.1246    1.5324    0.0000 C   0  0  0  0  0  0  0  0  0  0  0  0
    1.4101    1.1199    0.0000 C   0  0  0  0  0  0  0  0  0  0  0  0
    2.1246   -0.9426    0.0000 O   0  0  0  0  0  0  0  0  0  0  0  0
    2.8390   -1.3551    0.0000 C   0  0  0  0  0  0  0  0  0  0  0  0
    3.5535   -0.9426    0.0000 F   0  0  0  0  0  0  0  0  0  0  0  0
    2.8390   -2.1801    0.0000 F   0  0  0  0  0  0  0  0  0  0  0  0
    2.1246    2.3574    0.0000 Cl  0  0  0  0  0  0  0  0  0  0  0  0
  1  2  1  0      
  2  3  2  0      
  3  4  1  0      
  4  5  2  0      
  5  6  1  0      
  1  6  1  0      
  7  8  2  0      
  8  9  1  0      
  6  7  1  0      
  1  9  2  0      
 10 11  2  0      
 10 12  1  0      
  9 10  1  0      
 13 14  1  0      
 14 15  2  0      
 15 16  1  0      
 16 17  2  0      
 13 17  1  0      
 18 19  1  0      
 19 20  2  0      
 21 22  1  0      
 21 23  1  0      
 19 21  1  0      
 13 18  1  0      
 24 25  1  0      
 25 26  2  0      
 26 27  1  0      
 27 28  2  0      
 28 29  1  0      
 24 29  2  0      
 30 31  1  0      
 31 32  1  0      
 31 33  1  0      
 25 30  1  0      
 28 34  1  0      
 15 24  1  0      
 12 16  1  0      
M  END

>  <RackCode>
HYCPK72336

>  <Cat. No.>
HY-139837

>  <Product Name>
GDC-4379

>  <ROW>
G

>  <COLUMN>
17

>  <CAS No.>
2252277-73-7

>  <MWt>
489.86

>  <Target>
JAK

>  <Saltdate>


>  <Smiles>
O=C(C1=C2N=CC=CN2N=C1)NC3=CN(CC(N(C)C)=O)N=C3C4=CC(Cl)=CC=C4OC(F)F

>  <Solvent>
DMSO Solution

>  <Batch No.>
245340

>  <Quantity>
10mM  * 50uL

>  <Pathway>
Epigenetics; JAK/STAT Signaling; Protein Tyrosine Kinase/RTK; Stem Cell/Wnt

>  <Synonyms>


>  <Formula>
C21H18ClF2N7O3

>  <Research_Area>
Inflammation/Immunology

>  <Clinical_Information>
No Development Reported

>  <SUPPLIER>
MedChemExpress

$$$$
Untitled Document
  ChemDraw12081612472D

 32 33  0  0  0  0  0  0  0  0999 V2000
   -5.4026    0.2513    0.0000 C   0  0  0  0  0  0  0  0  0  0  0  0
   -4.9178   -0.4161    0.0000 N   0  0  0  0  0  0  0  0  0  0  0  0
   -5.0671    1.0050    0.0000 O   0  0  0  0  0  0  0  0  0  0  0  0
   -6.2231    0.1651    0.0000 O   0  0  0  0  0  0  0  0  0  0  0  0
   -4.0973   -0.3298    0.0000 C   0  0  0  0  0  0  0  0  0  0  0  0
   -3.6124   -0.9972    0.0000 C   0  0  0  0  0  0  0  0  0  0  0  0
   -2.7920   -0.9110    0.0000 C   0  0  0  0  0  0  0  0  0  0  0  0
   -2.4565   -0.1574    0.0000 C   0  0  0  0  0  0  0  0  0  0  0  0
   -2.9413    0.5100    0.0000 C   0  0  0  0  0  0  0  0  0  0  0  0
   -3.7618    0.4238    0.0000 C   0  0  0  0  0  0  0  0  0  0  0  0
   -1.2236    0.6433    0.0000 O   0  0  0  0  0  0  0  0  0  0  0  0
   -0.4166    0.4717    0.0000 N   0  0  0  0  0  0  0  0  0  0  0  0
   -0.3304   -0.3486    0.0000 C   0  0  0  0  0  0  0  0  0  0  0  0
   -1.0840   -0.6843    0.0000 C   0  0  0  0  0  0  0  0  0  0  0  0
   -1.6360   -0.0711    0.0000 C   0  0  0  0  0  0  0  0  0  0  0  0
    0.3841   -0.7611    0.0000 C   0  0  0  0  0  0  0  0  0  0  0  0
    0.3841   -1.5862    0.0000 O   0  0  0  0  0  0  0  0  0  0  0  0
    1.0985   -0.3486    0.0000 N   0  0  0  0  0  0  0  0  0  0  0  0
    1.8130   -0.7611    0.0000 C   0  0  0  0  0  0  0  0  0  0  0  0
    2.5275   -0.3486    0.0000 C   0  0  0  0  0  0  0  0  0  0  0  0
    3.2418   -0.7611    0.0000 C   0  0  0  0  0  0  0  0  0  0  0  0
    3.9562   -0.3486    0.0000 C   0  0  0  0  0  0  0  0  0  0  0  0
    4.6706   -0.7611    0.0000 C   0  0  0  0  0  0  0  0  0  0  0  0
    5.3851   -0.3486    0.0000 C   0  0  0  0  0  0  0  0  0  0  0  0
    6.0996   -0.7611    0.0000 C   0  0  0  0  0  0  0  0  0  0  0  0
    6.0996   -1.5862    0.0000 O   0  0  0  0  0  0  0  0  0  0  0  0
    6.8140   -0.3486    0.0000 N   0  0  0  0  0  0  0  0  0  0  0  0
    7.5285   -0.7611    0.0000 O   0  0  0  0  0  0  0  0  0  0  0  0
   -6.7080    0.8324    0.0000 C   0  0  0  0  0  0  0  0  0  0  0  0
   -7.5285    0.7462    0.0000 C   0  0  0  0  0  0  0  0  0  0  0  0
   -6.3725    1.5862    0.0000 C   0  0  0  0  0  0  0  0  0  0  0  0
   -7.1928    1.4999    0.0000 C   0  0  0  0  0  0  0  0  0  0  0  0
  1  2  1  0      
  1  3  2  0      
  1  4  1  0      
  5  6  1  0      
  6  7  2  0      
  7  8  1  0      
  8  9  2  0      
  9 10  1  0      
  5 10  2  0      
 11 12  1  0      
 12 13  2  0      
 13 14  1  0      
 14 15  2  0      
 11 15  1  0      
 16 17  2  0      
 19 20  1  0      
 20 21  1  0      
 21 22  1  0      
 22 23  1  0      
 23 24  1  0      
 24 25  1  0      
 25 26  2  0      
 27 28  1  0      
 25 27  1  0      
 18 19  1  0      
 16 18  1  0      
 13 16  1  0      
  8 15  1  0      
  2  5  1  0      
 29 30  1  0      
 29 31  1  0      
 29 32  1  0      
  4 29  1  0      
M  END

>  <RackCode>
HYCPK72336

>  <Cat. No.>
HY-18613

>  <Product Name>
CAY10603

>  <ROW>
H

>  <COLUMN>
17

>  <CAS No.>
1045792-66-2

>  <MWt>
446.50

>  <Target>
HDAC

>  <Saltdate>
Free Base

>  <Smiles>
O=C(OC(C)(C)C)NC1=CC=C(C2=CC(C(NCCCCCCC(NO)=O)=O)=NO2)C=C1

>  <Solvent>
DMSO Solution

>  <Batch No.>
123652

>  <Quantity>
10mM  * 50uL

>  <Pathway>
Cell Cycle/DNA Damage; Epigenetics

>  <Synonyms>
BML-281

>  <Formula>
C22H30N4O6

>  <Research_Area>
Cancer

>  <Clinical_Information>
No Development Reported

>  <SUPPLIER>
MedChemExpress

$$$$
Untitled Document
  ChemDraw10122216102D

 32 32  0  0  0  0  0  0  0  0999 V2000
   -4.8138    0.5691    0.0000 C   0  0  0  0  0  0  0  0  0  0  0  0
   -4.8138   -0.2559    0.0000 C   0  0  0  0  0  0  0  0  0  0  0  0
   -4.0993   -0.6684    0.0000 C   0  0  0  0  0  0  0  0  0  0  0  0
   -3.3848   -0.2559    0.0000 C   0  0  0  0  0  0  0  0  0  0  0  0
   -3.3848    0.5691    0.0000 C   0  0  0  0  0  0  0  0  0  0  0  0
   -4.0993    0.9816    0.0000 C   0  0  0  0  0  0  0  0  0  0  0  0
   -2.6704   -0.6684    0.0000 C   0  0  0  0  0  0  0  0  0  0  0  0
   -1.9559   -0.2559    0.0000 C   0  0  0  0  0  0  0  0  0  0  0  0
   -1.9559    0.5691    0.0000 C   0  0  0  0  0  0  0  0  0  0  0  0
   -2.6704    0.9816    0.0000 C   0  0  0  0  0  0  0  0  0  0  0  0
   -1.2415   -0.6684    0.0000 C   0  0  0  0  0  0  0  0  0  0  0  0
   -0.5270   -0.2559    0.0000 C   0  0  0  0  0  0  0  0  0  0  0  0
   -0.5270    0.5691    0.0000 C   0  0  0  0  0  0  0  0  0  0  0  0
   -1.2415    0.9816    0.0000 C   0  0  0  0  0  0  0  0  0  0  0  0
    0.1874   -0.6684    0.0000 C   0  0  0  0  0  0  0  0  0  0  0  0
    0.9019    0.5691    0.0000 N   0  0  0  0  0  0  0  0  0  0  0  0
    0.1874    0.9816    0.0000 C   0  0  0  0  0  0  0  0  0  0  0  0
    0.9881   -0.2514    0.0000 C   0  0  0  0  0  0  0  0  0  0  0  0
    1.7950   -0.4230    0.0000 C   0  0  0  0  0  0  0  0  0  0  0  0
    2.2075    0.2915    0.0000 N   0  3  0  0  0  0  0  0  0  0  0  0
    1.6555    0.9046    0.0000 C   0  0  0  0  0  0  0  0  0  0  0  0
    1.8264    1.7087    0.0000 C   0  0  0  0  0  0  0  0  0  0  0  0
    3.0251    0.3775    0.0000 C   0  0  0  0  0  0  0  0  0  0  0  0
    3.5084   -0.2877    0.0000 C   0  0  0  0  0  0  0  0  0  0  0  0
    3.1728   -1.0413    0.0000 C   0  0  0  0  0  0  0  0  0  0  0  0
    3.6577   -1.7087    0.0000 C   0  0  0  0  0  0  0  0  0  0  0  0
    4.4782   -1.6225    0.0000 C   0  0  0  0  0  0  0  0  0  0  0  0
    4.8138   -0.8689    0.0000 C   0  0  0  0  0  0  0  0  0  0  0  0
    4.3289   -0.2014    0.0000 C   0  0  0  0  0  0  0  0  0  0  0  0
    4.6632    0.5496    0.0000 Cl  0  0  0  0  0  0  0  0  0  0  0  0
    2.3552   -1.1273    0.0000 Cl  0  0  0  0  0  0  0  0  0  0  0  0
    3.1033    0.8698    0.0000 I   0  5  0  0  0  0  0  0  0  0  0  0
  1  2  1  0      
  2  3  1  0      
  3  4  1  0      
  5  6  1  0      
  6  1  1  0      
  4  7  1  0      
  7  8  1  0      
  9 10  1  0      
 10  5  1  0      
  8 11  1  0      
 11 12  1  0      
 13 14  1  0      
 14  9  1  0      
 12 15  1  0      
 16 17  1  0      
 17 13  1  0      
 16 18  1  0      
 18 19  2  0      
 19 20  1  0      
 20 21  2  0      
 21 16  1  0      
 21 22  1  0      
 20 23  1  0      
 23 24  1  0      
 24 25  2  0      
 25 26  1  0      
 26 27  2  0      
 27 28  1  0      
 28 29  2  0      
 29 24  1  0      
 29 30  1  0      
 25 31  1  0      
M  CHG  2  20   1  32  -1
M  END

>  <RackCode>
HYCPK72336

>  <Cat. No.>
HY-148189

>  <Product Name>
Aldometanib

>  <ROW>
I

>  <COLUMN>
17

>  <CAS No.>
2904601-67-6

>  <MWt>
593.45

>  <Target>
AMPK

>  <Saltdate>
Iodide

>  <Smiles>
CCCCCCCCCCCCCCCCN1C=C[N+](CC2=C(Cl)C=CC=C2Cl)=C1C.[I-]

>  <Solvent>
DMSO Solution

>  <Batch No.>
232107

>  <Quantity>
10mM  * 50uL

>  <Pathway>
Epigenetics; PI3K/Akt/mTOR

>  <Synonyms>
LXY-05-029

>  <Formula>
C27H43Cl2IN2

>  <Research_Area>
Metabolic Disease

>  <Clinical_Information>
No Development Reported

>  <SUPPLIER>
MedChemExpress

$$$$
Untitled Document
  ChemDraw05101917272D

 33 37  0  0  0  0  0  0  0  0999 V2000
   -1.3000   -2.2932    0.0000 O   0  0  0  0  0  0  0  0  0  0  0  0
   -0.4750   -2.2932    0.0000 C   0  0  0  0  0  0  0  0  0  0  0  0
    0.0099   -1.6258    0.0000 C   0  0  0  0  0  0  0  0  0  0  0  0
   -0.2450   -0.8412    0.0000 C   0  0  0  0  0  0  0  0  0  0  0  0
    0.2399   -0.1737    0.0000 C   0  0  0  0  0  0  0  0  0  0  0  0
   -0.2450    0.4937    0.0000 N   0  0  0  0  0  0  0  0  0  0  0  0
    0.0099    1.2783    0.0000 C   0  0  0  0  0  0  0  0  0  0  0  0
    0.8169    1.4499    0.0000 C   0  0  0  0  0  0  0  0  0  0  0  0
    1.0718    2.2345    0.0000 C   0  0  0  0  0  0  0  0  0  0  0  0
    1.8788    2.4060    0.0000 N   0  0  0  0  0  0  0  0  0  0  0  0
    2.1337    3.1906    0.0000 C   0  0  0  0  0  0  0  0  0  0  0  0
    2.4308    1.7929    0.0000 C   0  0  0  0  0  0  0  0  0  0  0  0
   -1.0297    0.2388    0.0000 C   0  0  0  0  0  0  0  0  0  0  0  0
   -1.0297   -0.5862    0.0000 C   0  0  0  0  0  0  0  0  0  0  0  0
   -1.7441   -0.9987    0.0000 C   0  0  0  0  0  0  0  0  0  0  0  0
   -2.4586   -0.5862    0.0000 C   0  0  0  0  0  0  0  0  0  0  0  0
   -3.1731   -0.9987    0.0000 O   0  0  0  0  0  0  0  0  0  0  0  0
   -3.8875   -0.5862    0.0000 C   0  0  0  0  0  0  0  0  0  0  0  0
   -2.4586    0.2388    0.0000 C   0  0  0  0  0  0  0  0  0  0  0  0
   -1.7441    0.6513    0.0000 C   0  0  0  0  0  0  0  0  0  0  0  0
    0.7945   -1.8807    0.0000 C   0  0  0  0  0  0  0  0  0  0  0  0
    1.4620   -1.3958    0.0000 C   0  0  0  0  0  0  0  0  0  0  0  0
    1.4620   -0.5708    0.0000 C   0  0  0  0  0  0  0  0  0  0  0  0
    2.2466   -0.3159    0.0000 N   0  0  0  0  0  0  0  0  0  0  0  0
    2.7315   -0.9833    0.0000 C   0  0  0  0  0  0  0  0  0  0  0  0
    2.2466   -1.6507    0.0000 C   0  0  0  0  0  0  0  0  0  0  0  0
    2.5821   -2.4044    0.0000 C   0  0  0  0  0  0  0  0  0  0  0  0
    3.4026   -2.4906    0.0000 C   0  0  0  0  0  0  0  0  0  0  0  0
    3.8875   -1.8232    0.0000 C   0  0  0  0  0  0  0  0  0  0  0  0
    3.5520   -1.0695    0.0000 C   0  0  0  0  0  0  0  0  0  0  0  0
    0.0099   -2.9607    0.0000 N   0  0  0  0  0  0  0  0  0  0  0  0
    0.7945   -2.7057    0.0000 C   0  0  0  0  0  0  0  0  0  0  0  0
    1.4620   -3.1906    0.0000 O   0  0  0  0  0  0  0  0  0  0  0  0
  1  2  2  0      
  2  3  1  0      
  3  4  1  0      
  4  5  2  0      
  5  6  1  0      
  6  7  1  0      
  7  8  1  0      
  8  9  1  0      
  9 10  1  0      
 10 11  1  0      
 10 12  1  0      
  6 13  1  0      
 13 14  2  0      
  4 14  1  0      
 14 15  1  0      
 15 16  2  0      
 16 17  1  0      
 17 18  1  0      
 16 19  1  0      
 19 20  2  0      
 13 20  1  0      
  3 21  2  0      
 21 22  1  0      
 22 23  2  0      
 23 24  1  0      
 24 25  1  0      
 25 26  2  0      
 22 26  1  0      
 26 27  1  0      
 27 28  2  0      
 28 29  1  0      
 29 30  2  0      
 25 30  1  0      
  2 31  1  0      
 31 32  1  0      
 21 32  1  0      
 32 33  2  0      
M  END

>  <RackCode>
HYCPK72336

>  <Cat. No.>
HY-13689

>  <Product Name>
Go 6983

>  <ROW>
J

>  <COLUMN>
17

>  <CAS No.>
133053-19-7

>  <MWt>
442.51

>  <Target>
PKC

>  <Saltdate>
Free Base

>  <Smiles>
O=C(C(C1=CN(CCCN(C)C)C2=C1C=C(OC)C=C2)=C3C4=CNC5=C4C=CC=C5)NC3=O

>  <Solvent>
DMSO Solution

>  <Batch No.>
22213

>  <Quantity>
10mM  * 50uL

>  <Pathway>
Epigenetics; TGF-beta/Smad

>  <Synonyms>
G? 6983; Goe 6983

>  <Formula>
C26H26N4O3

>  <Research_Area>
Cancer

>  <Clinical_Information>
No Development Reported

>  <SUPPLIER>
MedChemExpress

$$$$
Untitled Document
  ChemDraw04021911092D

 28 31  0  0  0  0  0  0  0  0999 V2000
   -0.3585   -1.4416    0.0000 C   0  0  0  0  0  0  0  0  0  0  0  0
   -0.3585   -2.2666    0.0000 C   0  0  0  0  0  0  0  0  0  0  0  0
    0.3560   -2.6791    0.0000 N   0  0  0  0  0  0  0  0  0  0  0  0
    1.0705   -2.2666    0.0000 C   0  0  0  0  0  0  0  0  0  0  0  0
    1.0705   -1.4416    0.0000 C   0  0  0  0  0  0  0  0  0  0  0  0
    0.3560   -1.0291    0.0000 C   0  0  0  0  0  0  0  0  0  0  0  0
    1.7825   -1.0305    0.0000 C   0  0  0  0  0  0  0  0  0  0  0  0
   -1.0705   -2.6777    0.0000 N   0  0  0  0  0  0  0  0  0  0  0  0
   -1.0705   -1.0305    0.0000 C   0  0  0  0  0  0  0  0  0  0  0  0
   -1.0705   -0.2084    0.0000 N   0  0  0  0  0  0  0  0  0  0  0  0
   -1.7825   -1.4416    0.0000 O   0  0  0  0  0  0  0  0  0  0  0  0
   -1.7825    0.2027    0.0000 C   0  0  0  0  0  0  0  0  0  0  0  0
   -1.7825    1.0277    0.0000 C   0  0  0  0  0  0  0  0  0  0  0  0
   -2.4969    1.4402    0.0000 C   0  0  0  0  0  0  0  0  0  0  0  0
   -3.2114    1.0277    0.0000 N   0  0  0  0  0  0  0  0  0  0  0  0
   -3.2114    0.2027    0.0000 C   0  0  0  0  0  0  0  0  0  0  0  0
   -2.4969   -0.2098    0.0000 C   0  0  0  0  0  0  0  0  0  0  0  0
    2.4969   -1.4430    0.0000 C   0  0  0  0  0  0  0  0  0  0  0  0
    3.2114   -1.0305    0.0000 C   0  0  0  0  0  0  0  0  0  0  0  0
    3.2114   -0.2055    0.0000 C   0  0  0  0  0  0  0  0  0  0  0  0
    2.4969    0.2070    0.0000 C   0  0  0  0  0  0  0  0  0  0  0  0
    1.7825   -0.2055    0.0000 C   0  0  0  0  0  0  0  0  0  0  0  0
    2.4969    1.0291    0.0000 N   0  0  0  0  0  0  0  0  0  0  0  0
    3.2114    1.4416    0.0000 C   0  0  0  0  0  0  0  0  0  0  0  0
    3.2114    2.2666    0.0000 C   0  0  0  0  0  0  0  0  0  0  0  0
    2.4969    2.6791    0.0000 N   0  0  0  0  0  0  0  0  0  0  0  0
    1.7825    2.2666    0.0000 C   0  0  0  0  0  0  0  0  0  0  0  0
    1.7825    1.4416    0.0000 C   0  0  0  0  0  0  0  0  0  0  0  0
  1  2  2  0      
  2  3  1  0      
  3  4  2  0      
  4  5  1  0      
  5  6  2  0      
  6  1  1  0      
  5  7  1  0      
  2  8  1  0      
  1  9  1  0      
  9 10  1  0      
  9 11  2  0      
 10 12  1  0      
 12 13  2  0      
 13 14  1  0      
 14 15  2  0      
 15 16  1  0      
 16 17  2  0      
 17 12  1  0      
  7 18  2  0      
 18 19  1  0      
 19 20  2  0      
 20 21  1  0      
 21 22  2  0      
 22  7  1  0      
 21 23  1  0      
 23 24  1  0      
 24 25  1  0      
 25 26  1  0      
 26 27  1  0      
 27 28  1  0      
 28 23  1  0      
M  END

>  <RackCode>
HYCPK72336

>  <Cat. No.>
HY-126146

>  <Product Name>
PKC-iota inhibitor 1

>  <ROW>
K

>  <COLUMN>
17

>  <CAS No.>
2328094-11-5

>  <MWt>
374.44

>  <Target>
PKC

>  <Saltdate>
Free Base

>  <Smiles>
NC1=C(C(NC2=CC=NC=C2)=O)C=C(C3=CC=CC(N4CCNCC4)=C3)C=N1

>  <Solvent>
DMSO Solution

>  <Batch No.>
84656

>  <Quantity>
10mM  * 50uL

>  <Pathway>
Epigenetics; TGF-beta/Smad

>  <Synonyms>


>  <Formula>
C21H22N6O

>  <Research_Area>
Cancer

>  <Clinical_Information>
No Development Reported

>  <SUPPLIER>
MedChemExpress

$$$$
Untitled Document
  ChemDraw03041916272D

 24 26  0  0  0  0  0  0  0  0999 V2000
   -3.2151   -0.8250    0.0000 N   0  0  0  0  0  0  0  0  0  0  0  0
   -3.9296   -0.4125    0.0000 C   0  0  0  0  0  0  0  0  0  0  0  0
   -3.9296    0.4125    0.0000 C   0  0  0  0  0  0  0  0  0  0  0  0
   -3.2151    0.8250    0.0000 C   0  0  0  0  0  0  0  0  0  0  0  0
   -2.5007    0.4125    0.0000 C   0  0  0  0  0  0  0  0  0  0  0  0
   -1.7862    0.8250    0.0000 C   0  0  0  0  0  0  0  0  0  0  0  0
   -1.0717    0.4125    0.0000 C   0  0  0  0  0  0  0  0  0  0  0  0
   -1.0717   -0.4125    0.0000 C   0  0  0  0  0  0  0  0  0  0  0  0
   -1.7862   -0.8250    0.0000 C   0  0  0  0  0  0  0  0  0  0  0  0
   -2.5007   -0.4125    0.0000 C   0  0  0  0  0  0  0  0  0  0  0  0
   -1.7862    1.6500    0.0000 O   0  0  0  0  0  0  0  0  0  0  0  0
   -1.7862   -1.6500    0.0000 O   0  0  0  0  0  0  0  0  0  0  0  0
   -0.3572   -0.8250    0.0000 N   0  0  0  0  0  0  0  0  0  0  0  0
    0.3572   -0.4125    0.0000 C   0  0  0  0  0  0  0  0  0  0  0  0
    1.0717   -0.8250    0.0000 C   0  0  0  0  0  0  0  0  0  0  0  0
    1.7862   -0.4125    0.0000 C   0  0  0  0  0  0  0  0  0  0  0  0
    2.5007   -0.8250    0.0000 C   0  0  0  0  0  0  0  0  0  0  0  0
    3.2151   -0.4125    0.0000 C   0  0  0  0  0  0  0  0  0  0  0  0
    3.2151    0.4125    0.0000 C   0  0  0  0  0  0  0  0  0  0  0  0
    2.5007    0.8250    0.0000 C   0  0  0  0  0  0  0  0  0  0  0  0
    1.7862    0.4125    0.0000 C   0  0  0  0  0  0  0  0  0  0  0  0
    3.9296    0.8250    0.0000 O   0  0  0  0  0  0  0  0  0  0  0  0
    2.5007    1.6500    0.0000 Br  0  0  0  0  0  0  0  0  0  0  0  0
    3.9296   -0.8250    0.0000 Br  0  0  0  0  0  0  0  0  0  0  0  0
  1  2  2  0      
  2  3  1  0      
  3  4  2  0      
  4  5  1  0      
  5  6  1  0      
  6  7  1  0      
  7  8  2  0      
  8  9  1  0      
  9 10  1  0      
  1 10  1  0      
  5 10  2  0      
  6 11  2  0      
  9 12  2  0      
 14 15  1  0      
 16 17  1  0      
 17 18  2  0      
 18 19  1  0      
 19 20  2  0      
 20 21  1  0      
 16 21  2  0      
 19 22  1  0      
 20 23  1  0      
 18 24  1  0      
 15 16  1  0      
 13 14  1  0      
  8 13  1  0      
M  END

>  <RackCode>
HYCPK72336

>  <Cat. No.>
HY-115492

>  <Product Name>
NSC668394

>  <ROW>
L

>  <COLUMN>
17

>  <CAS No.>
382605-72-3

>  <MWt>
452.10

>  <Target>
PKC

>  <Saltdate>


>  <Smiles>
O=C(C=C1NCCC2=CC(Br)=C(O)C(Br)=C2)C3=C(N=CC=C3)C1=O

>  <Solvent>
DMSO Solution

>  <Batch No.>
127911

>  <Quantity>
10mM  * 50uL

>  <Pathway>
Epigenetics; TGF-beta/Smad

>  <Synonyms>


>  <Formula>
C17H12Br2N2O3

>  <Research_Area>
Cancer

>  <Clinical_Information>
No Development Reported

>  <SUPPLIER>
MedChemExpress

$$$$
Untitled Document
  ChemDraw05101917262D

 29 32  0  0  0  0  0  0  0  0999 V2000
   -2.7963    1.6500    0.0000 O   0  0  0  0  0  0  0  0  0  0  0  0
   -2.7963    0.8250    0.0000 C   0  0  0  0  0  0  0  0  0  0  0  0
   -3.5107    0.4125    0.0000 C   0  0  0  0  0  0  0  0  0  0  0  0
   -4.2252    0.8250    0.0000 C   0  0  0  0  0  0  0  0  0  0  0  0
   -4.9397    0.4125    0.0000 C   0  0  0  0  0  0  0  0  0  0  0  0
   -4.9397   -0.4125    0.0000 C   0  0  0  0  0  0  0  0  0  0  0  0
   -4.2252   -0.8250    0.0000 C   0  0  0  0  0  0  0  0  0  0  0  0
   -4.2252   -1.6500    0.0000 Cl  0  0  0  0  0  0  0  0  0  0  0  0
   -3.5107   -0.4125    0.0000 C   0  0  0  0  0  0  0  0  0  0  0  0
   -2.7963   -0.8250    0.0000 F   0  0  0  0  0  0  0  0  0  0  0  0
   -2.0818    0.4125    0.0000 N   0  0  0  0  0  0  0  0  0  0  0  0
   -1.3673    0.8250    0.0000 C   0  0  0  0  0  0  0  0  0  0  0  0
   -0.6529    0.4125    0.0000 C   0  0  0  0  0  0  0  0  0  0  0  0
   -0.6529   -0.4125    0.0000 N   0  0  0  0  0  0  0  0  0  0  0  0
    0.0616   -0.8250    0.0000 C   0  0  0  0  0  0  0  0  0  0  0  0
    0.7761   -0.4125    0.0000 C   0  0  0  0  0  0  0  0  0  0  0  0
    1.4906   -0.8250    0.0000 N   0  0  0  0  0  0  0  0  0  0  0  0
    2.2050   -0.4125    0.0000 C   0  0  0  0  0  0  0  0  0  0  0  0
    2.9195   -0.8250    0.0000 N   0  0  0  0  0  0  0  0  0  0  0  0
    3.6340   -0.4125    0.0000 C   0  0  0  0  0  0  0  0  0  0  0  0
    3.7202    0.4080    0.0000 N   0  0  0  0  0  0  0  0  0  0  0  0
    4.5272    0.5795    0.0000 C   0  0  0  0  0  0  0  0  0  0  0  0
    4.9397   -0.1350    0.0000 C   0  0  0  0  0  0  0  0  0  0  0  0
    4.3876   -0.7481    0.0000 S   0  0  0  0  0  0  0  0  0  0  0  0
    2.2050    0.4125    0.0000 C   0  0  0  0  0  0  0  0  0  0  0  0
    1.4906    0.8250    0.0000 C   0  0  0  0  0  0  0  0  0  0  0  0
    0.7761    0.4125    0.0000 C   0  0  0  0  0  0  0  0  0  0  0  0
   -1.3673   -0.8250    0.0000 C   0  0  0  0  0  0  0  0  0  0  0  0
   -2.0818   -0.4125    0.0000 C   0  0  0  0  0  0  0  0  0  0  0  0
  1  2  2  0      
  2  3  1  0      
  3  4  2  0      
  4  5  1  0      
  5  6  2  0      
  6  7  1  0      
  7  8  1  0      
  7  9  2  0      
  3  9  1  0      
  9 10  1  0      
  2 11  1  0      
 11 12  1  0      
 12 13  1  0      
 13 14  1  0      
 14 15  1  0      
 15 16  1  0      
 16 17  2  0      
 17 18  1  0      
 18 19  1  0      
 19 20  1  0      
 20 21  2  0      
 21 22  1  0      
 22 23  2  0      
 23 24  1  0      
 20 24  1  0      
 18 25  2  0      
 25 26  1  0      
 26 27  2  0      
 16 27  1  0      
 14 28  1  0      
 28 29  1  0      
 11 29  1  0      
M  END

>  <RackCode>
HYCPK72336

>  <Cat. No.>
HY-13819

>  <Product Name>
MK-8745

>  <ROW>
M

>  <COLUMN>
17

>  <CAS No.>
885325-71-3

>  <MWt>
431.91

>  <Target>
Apoptosis; Aurora Kinase

>  <Saltdate>
Free Base

>  <Smiles>
O=C(C1=CC=CC(Cl)=C1F)N2CCN(CC3=NC(NC4=NC=CS4)=CC=C3)CC2

>  <Solvent>
DMSO Solution

>  <Batch No.>
20863

>  <Quantity>
10mM  * 50uL

>  <Pathway>
Apoptosis; Cell Cycle/DNA Damage; Epigenetics

>  <Synonyms>


>  <Formula>
C20H19ClFN5OS

>  <Research_Area>
Cancer

>  <Clinical_Information>
No Development Reported

>  <SUPPLIER>
MedChemExpress

$$$$
Untitled Document
  ChemDraw05251710552D

 13 13  0  0  0  0  0  0  0  0999 V2000
    2.5006    0.0000    0.0000 C   0  0  0  0  0  0  0  0  0  0  0  0
    1.7862    0.4125    0.0000 C   0  0  0  0  0  0  0  0  0  0  0  0
   -0.3572   -0.8250    0.0000 C   0  0  0  0  0  0  0  0  0  0  0  0
   -1.0717   -1.2375    0.0000 C   0  0  0  0  0  0  0  0  0  0  0  0
   -1.0717    0.4125    0.0000 C   0  0  0  0  0  0  0  0  0  0  0  0
   -0.3572    0.0000    0.0000 C   0  0  0  0  0  0  0  0  0  0  0  0
   -1.7862   -0.8250    0.0000 C   0  0  0  0  0  0  0  0  0  0  0  0
   -1.7862    0.0000    0.0000 C   0  0  0  0  0  0  0  0  0  0  0  0
    0.3572    0.4125    0.0000 C   0  0  0  0  0  0  0  0  0  0  0  0
   -2.5006   -1.2375    0.0000 O   0  0  0  0  0  0  0  0  0  0  0  0
   -2.5006    0.4125    0.0000 O   0  0  0  0  0  0  0  0  0  0  0  0
    0.3572    1.2375    0.0000 O   0  0  0  0  0  0  0  0  0  0  0  0
    1.0717    0.0000    0.0000 O   0  0  0  0  0  0  0  0  0  0  0  0
  2  1  1  0      
  4  3  2  0      
  6  3  1  0      
  6  5  2  0      
  7  4  1  0      
  8  5  1  0      
  8  7  2  0      
  9  6  1  0      
 10  7  1  0      
 11  8  1  0      
 12  9  2  0      
 13  2  1  0      
 13  9  1  0      
M  END

>  <RackCode>
HYCPK72336

>  <Cat. No.>
HY-W016409

>  <Product Name>
Ethyl 3,4-dihydroxybenzoate

>  <ROW>
N

>  <COLUMN>
17

>  <CAS No.>
3943-89-3

>  <MWt>
182.18

>  <Target>
Apoptosis; Autophagy; HIF/HIF Prolyl-Hydroxylase; NO Synthase; Reactive Oxygen Species

>  <Saltdate>


>  <Smiles>
O=C(OCC)C1=CC=C(O)C(O)=C1

>  <Solvent>
DMSO Solution

>  <Batch No.>
137125

>  <Quantity>
10mM  * 50uL

>  <Pathway>
Apoptosis; Autophagy; Immunology/Inflammation; Metabolic Enzyme/Protease; NF-¦ÊB

>  <Synonyms>
Protocatechuic acid ethyl ester

>  <Formula>
C9H10O4

>  <Research_Area>
Cancer; Metabolic Disease

>  <Clinical_Information>
No Development Reported

>  <SUPPLIER>
MedChemExpress

$$$$
Untitled Document
  ChemDraw02111912542D

 41 45  0  0  0  0  0  0  0  0999 V2000
   -0.7150    0.4118    0.0000 N   0  0  0  0  0  0  0  0  0  0  0  0
   -0.7150   -0.4132    0.0000 C   0  0  0  0  0  0  0  0  0  0  0  0
   -0.0005   -0.8257    0.0000 N   0  0  0  0  0  0  0  0  0  0  0  0
    0.7140   -0.4132    0.0000 C   0  0  0  0  0  0  0  0  0  0  0  0
    0.7140    0.4118    0.0000 C   0  0  0  0  0  0  0  0  0  0  0  0
   -0.0005    0.8243    0.0000 C   0  0  0  0  0  0  0  0  0  0  0  0
    1.4986   -0.6682    0.0000 N   0  0  0  0  0  0  0  0  0  0  0  0
    1.9835   -0.0007    0.0000 N   0  0  0  0  0  0  0  0  0  0  0  0
    1.4986    0.6667    0.0000 C   0  0  0  0  0  0  0  0  0  0  0  0
    1.7526   -1.4501    0.0000 C   0  0  0  0  0  0  0  0  0  0  0  0
   -0.0005    1.6464    0.0000 N   0  0  0  0  0  0  0  0  0  0  0  0
    0.7140    2.0589    0.0000 C   0  0  0  0  0  0  0  0  0  0  0  0
    0.7140    2.8839    0.0000 C   0  0  0  0  0  0  0  0  0  0  0  0
   -0.0005    3.2964    0.0000 O   0  0  0  0  0  0  0  0  0  0  0  0
   -0.7150    2.8839    0.0000 C   0  0  0  0  0  0  0  0  0  0  0  0
   -0.7150    2.0589    0.0000 C   0  0  0  0  0  0  0  0  0  0  0  0
   -1.4270   -0.8243    0.0000 C   0  0  0  0  0  0  0  0  0  0  0  0
    2.5540   -1.6204    0.0000 C   0  0  0  0  0  0  0  0  0  0  0  0
    3.1022   -1.0116    0.0000 C   0  0  0  0  0  0  0  0  0  0  0  0
    3.9036   -1.1819    0.0000 C   0  0  0  0  0  0  0  0  0  0  0  0
    4.4498   -0.5752    0.0000 C   0  0  0  0  0  0  0  0  0  0  0  0
    5.2456   -0.7443    0.0000 C   0  0  0  0  0  0  0  0  0  0  0  0
    5.7900   -0.1397    0.0000 C   0  0  0  0  0  0  0  0  0  0  0  0
    5.5395    0.6313    0.0000 O   0  0  0  0  0  0  0  0  0  0  0  0
    6.5829   -0.3083    0.0000 N   0  0  0  0  0  0  0  0  0  0  0  0
    7.1254    0.2942    0.0000 O   0  0  0  0  0  0  0  0  0  0  0  0
   -2.1415   -0.4118    0.0000 C   0  0  0  0  0  0  0  0  0  0  0  0
   -2.8559   -0.8243    0.0000 C   0  0  0  0  0  0  0  0  0  0  0  0
   -2.8559   -1.6493    0.0000 C   0  0  0  0  0  0  0  0  0  0  0  0
   -2.1415   -2.0618    0.0000 C   0  0  0  0  0  0  0  0  0  0  0  0
   -1.4270   -1.6493    0.0000 C   0  0  0  0  0  0  0  0  0  0  0  0
   -3.5679   -2.0604    0.0000 N   0  0  0  0  0  0  0  0  0  0  0  0
   -4.2774   -1.6507    0.0000 C   0  0  0  0  0  0  0  0  0  0  0  0
   -4.9845   -2.0589    0.0000 N   0  0  0  0  0  0  0  0  0  0  0  0
   -4.2774   -0.8343    0.0000 O   0  0  0  0  0  0  0  0  0  0  0  0
   -5.6989   -1.6464    0.0000 C   0  0  0  0  0  0  0  0  0  0  0  0
   -6.4134   -2.0589    0.0000 C   0  0  0  0  0  0  0  0  0  0  0  0
   -6.4134   -2.8839    0.0000 O   0  0  0  0  0  0  0  0  0  0  0  0
   -5.6989   -3.2964    0.0000 C   0  0  0  0  0  0  0  0  0  0  0  0
   -4.9845   -2.8839    0.0000 C   0  0  0  0  0  0  0  0  0  0  0  0
   -7.1254   -1.6479    0.0000 C   0  0  0  0  0  0  0  0  0  0  0  0
  1  2  2  0      
  2  3  1  0      
  3  4  2  0      
  4  5  1  0      
  5  6  2  0      
  6  1  1  0      
  4  7  1  0      
  7  8  1  0      
  8  9  2  0      
  9  5  1  0      
  7 10  1  0      
  6 11  1  0      
 11 12  1  0      
 12 13  1  0      
 13 14  1  0      
 14 15  1  0      
 15 16  1  0      
 16 11  1  0      
  2 17  1  0      
 10 18  1  0      
 18 19  1  0      
 19 20  1  0      
 20 21  1  0      
 21 22  1  0      
 22 23  1  0      
 23 24  2  0      
 23 25  1  0      
 25 26  1  0      
 17 27  2  0      
 27 28  1  0      
 28 29  2  0      
 29 30  1  0      
 30 31  2  0      
 31 17  1  0      
 29 32  1  0      
 32 33  1  0      
 33 34  1  0      
 33 35  2  0      
 34 36  1  0      
 36 37  1  0      
 37 38  1  0      
 38 39  1  0      
 39 40  1  0      
 40 34  1  0      
 37 41  1  6      
M  END

>  <RackCode>
HYCPK72336

>  <Cat. No.>
HY-114414

>  <Product Name>
HDACs/mTOR Inhibitor 1

>  <ROW>
O

>  <COLUMN>
17

>  <CAS No.>
2271413-06-8

>  <MWt>
566.65

>  <Target>
Apoptosis; HDAC; mTOR

>  <Saltdate>
Free Base

>  <Smiles>
O=C(NO)CCCCCCN1C2=NC(C3=CC=C(NC(N4C[C@@H](C)OCC4)=O)C=C3)=NC(N5CCOCC5)=C2C=N1

>  <Solvent>
DMSO Solution

>  <Batch No.>
42615

>  <Quantity>
10mM  * 50uL

>  <Pathway>
Apoptosis; Cell Cycle/DNA Damage; Epigenetics; PI3K/Akt/mTOR

>  <Synonyms>


>  <Formula>
C28H38N8O5

>  <Research_Area>
Cancer

>  <Clinical_Information>
No Development Reported

>  <SUPPLIER>
MedChemExpress

$$$$
Untitled Document
  ChemDraw10131708572D

 33 37  0  0  0  0  0  0  0  0999 V2000
   -2.1428    0.2046    0.0000 C   0  0  0  0  0  0  0  0  0  0  0  0
   -1.4282   -0.2046    0.0000 C   0  0  0  0  0  0  0  0  0  0  0  0
   -1.4282   -1.0296    0.0000 C   0  0  0  0  0  0  0  0  0  0  0  0
   -0.7136   -1.4454    0.0000 C   0  0  0  0  0  0  0  0  0  0  0  0
    0.0010   -1.0296    0.0000 N   0  0  0  0  0  0  0  0  0  0  0  0
    0.0010   -0.2046    0.0000 C   0  0  0  0  0  0  0  0  0  0  0  0
   -0.7136    0.2046    0.0000 C   0  0  0  0  0  0  0  0  0  0  0  0
    0.7157   -1.4454    0.0000 C   0  0  0  0  0  0  0  0  0  0  0  0
    1.4303   -1.0296    0.0000 C   0  0  0  0  0  0  0  0  0  0  0  0
    2.1449   -1.4454    0.0000 C   0  0  0  0  0  0  0  0  0  0  0  0
    2.8616   -1.0296    0.0000 C   0  0  0  0  0  0  0  0  0  0  0  0
    2.8616   -0.2046    0.0000 O   0  0  0  0  0  0  0  0  0  0  0  0
    3.5741   -1.4454    0.0000 N   0  0  0  0  0  0  0  0  0  0  0  0
    3.5741   -2.2704    0.0000 C   0  0  0  0  0  0  0  0  0  0  0  0
    2.8616   -2.6796    0.0000 N   0  0  0  0  0  0  0  0  0  0  0  0
    2.1449   -2.2704    0.0000 C   0  0  0  0  0  0  0  0  0  0  0  0
    1.4303   -2.6796    0.0000 C   0  0  0  0  0  0  0  0  0  0  0  0
    5.0034   -2.2704    0.0000 S   0  0  0  0  0  0  0  0  0  0  0  0
    5.0034   -1.4454    0.0000 C   0  0  0  0  0  0  0  0  0  0  0  0
    4.2908   -1.0296    0.0000 C   0  0  0  0  0  0  0  0  0  0  0  0
   -2.8595   -0.2046    0.0000 C   0  0  0  0  0  0  0  0  0  0  0  0
   -2.8595   -1.0296    0.0000 C   0  0  0  0  0  0  0  0  0  0  0  0
   -3.5721   -1.4454    0.0000 C   0  0  0  0  0  0  0  0  0  0  0  0
   -4.2888   -1.0296    0.0000 C   0  0  0  0  0  0  0  0  0  0  0  0
   -4.2888   -0.2046    0.0000 C   0  0  0  0  0  0  0  0  0  0  0  0
   -3.5721    0.2046    0.0000 C   0  0  0  0  0  0  0  0  0  0  0  0
   -5.0034   -1.4454    0.0000 F   0  0  0  0  0  0  0  0  0  0  0  0
   -2.1428    1.0296    0.0000 C   0  0  0  0  0  0  0  0  0  0  0  0
   -2.8595    1.4454    0.0000 C   0  0  0  0  0  0  0  0  0  0  0  0
   -2.8595    2.2704    0.0000 C   0  0  0  0  0  0  0  0  0  0  0  0
   -2.1428    2.6796    0.0000 C   0  0  0  0  0  0  0  0  0  0  0  0
   -1.4303    2.2704    0.0000 C   0  0  0  0  0  0  0  0  0  0  0  0
   -1.4303    1.4454    0.0000 C   0  0  0  0  0  0  0  0  0  0  0  0
  1  2  2  0      
  1 21  1  0      
  1 28  1  0      
  2  3  1  0      
  2  7  1  0      
  3  4  1  0      
  4  5  1  0      
  6  5  1  0      
  5  8  1  0      
  7  6  1  0      
  8  9  1  0      
  9 10  1  0      
 10 11  1  0      
 10 16  2  0      
 11 12  2  0      
 11 13  1  0      
 13 14  1  0      
 13 20  1  0      
 15 14  2  0      
 14 18  1  0      
 16 15  1  0      
 16 17  1  0      
 18 19  1  0      
 20 19  2  0      
 21 22  2  0      
 21 26  1  0      
 22 23  1  0      
 23 24  2  0      
 25 24  1  0      
 24 27  1  0      
 26 25  2  0      
 28 29  2  0      
 28 33  1  0      
 29 30  1  0      
 30 31  2  0      
 32 31  1  0      
 33 32  2  0      
M  END

>  <RackCode>
HYCPK72336

>  <Cat. No.>
HY-107613

>  <Product Name>
R 59-022

>  <ROW>
P

>  <COLUMN>
17

>  <CAS No.>
93076-89-2

>  <MWt>
459.58

>  <Target>
5-HT Receptor; PKC

>  <Saltdate>
Free Base

>  <Smiles>
O=C1C(CCN(CC/2)CCC2=C(C3=CC=CC=C3)/C4=CC=C(F)C=C4)=C(C)N=C5N1C=CS5

>  <Solvent>
DMSO Solution

>  <Batch No.>
157076

>  <Quantity>
10mM  * 50uL

>  <Pathway>
Epigenetics; GPCR/G Protein; Neuronal Signaling; TGF-beta/Smad

>  <Synonyms>
DKGI-I; Diacylglycerol kinase inhibitor I

>  <Formula>
C27H26FN3OS

>  <Research_Area>
Inflammation/Immunology

>  <Clinical_Information>
No Development Reported

>  <SUPPLIER>
MedChemExpress

$$$$
Untitled Document
  ChemDraw07121714592D

 27 28  0  0  0  0  0  0  0  0999 V2000
   -1.0710    1.0332    0.0000 O   0  0  0  0  0  0  0  0  0  0  0  0
   -1.0710    0.2147    0.0000 C   0  0  0  0  0  0  0  0  0  0  0  0
   -1.7844   -0.2033    0.0000 C   0  0  0  0  0  0  0  0  0  0  0  0
   -1.7844   -1.0316    0.0000 C   0  0  0  0  0  0  0  0  0  0  0  0
   -1.0710   -1.4495    0.0000 C   0  0  0  0  0  0  0  0  0  0  0  0
   -0.3598   -1.0316    0.0000 C   0  0  0  0  0  0  0  0  0  0  0  0
   -0.3598   -0.2033    0.0000 C   0  0  0  0  0  0  0  0  0  0  0  0
    0.3536    0.2089    0.0000 C   0  0  0  0  0  0  0  0  0  0  0  0
    0.3536    1.0353    0.0000 O   0  0  0  0  0  0  0  0  0  0  0  0
    1.0669    1.4417    0.0000 C   0  0  0  0  0  0  0  0  0  0  0  0
    1.7803    1.0353    0.0000 C   0  0  0  0  0  0  0  0  0  0  0  0
    2.4936    1.4417    0.0000 C   0  0  0  0  0  0  0  0  0  0  0  0
    3.2070    1.0353    0.0000 C   0  0  0  0  0  0  0  0  0  0  0  0
    2.4936    2.2681    0.0000 C   0  0  0  0  0  0  0  0  0  0  0  0
    1.0669    2.2681    0.0000 O   0  0  0  0  0  0  0  0  0  0  0  0
    1.0669   -0.2033    0.0000 C   0  0  0  0  0  0  0  0  0  0  0  0
    1.7803    0.2089    0.0000 C   0  0  0  0  0  0  0  0  0  0  0  0
    2.4936   -0.2033    0.0000 C   0  0  0  0  0  0  0  0  0  0  0  0
    3.2070    0.2089    0.0000 C   0  0  0  0  0  0  0  0  0  0  0  0
    2.4936   -1.0297    0.0000 C   0  0  0  0  0  0  0  0  0  0  0  0
   -1.0710   -2.2681    0.0000 O   0  0  0  0  0  0  0  0  0  0  0  0
   -2.4957   -1.4495    0.0000 C   0  0  0  0  0  0  0  0  0  0  0  0
   -2.4957   -2.2681    0.0000 O   0  0  0  0  0  0  0  0  0  0  0  0
   -3.2070   -1.0316    0.0000 C   0  0  0  0  0  0  0  0  0  0  0  0
   -3.2070   -0.2033    0.0000 C   0  0  0  0  0  0  0  0  0  0  0  0
   -2.4957    0.2147    0.0000 C   0  0  0  0  0  0  0  0  0  0  0  0
   -2.4957    1.0332    0.0000 O   0  0  0  0  0  0  0  0  0  0  0  0
  1  2  2  0      
  2  3  1  0      
  2  7  1  0      
  3  4  1  0      
  3 26  2  0      
  4  5  1  0      
  4 22  2  0      
  6  5  1  0      
  5 21  2  0      
  7  6  2  0      
  7  8  1  0      
  8  9  1  6      
  8 16  1  0      
  9 10  1  0      
 10 11  1  0      
 10 15  2  0      
 11 12  2  0      
 12 13  1  0      
 12 14  1  0      
 16 17  1  0      
 17 18  2  0      
 18 19  1  0      
 18 20  1  0      
 22 23  1  0      
 22 24  1  0      
 25 24  2  0      
 26 25  1  0      
 26 27  1  0      
M  END

>  <RackCode>
HYCPK72336

>  <Cat. No.>
HY-N5112B

>  <Product Name>
¦Â,¦Â-Dimethylacrylshikonin

>  <ROW>
A

>  <COLUMN>
18

>  <CAS No.>
24502-79-2

>  <MWt>
370.40

>  <Target>
HIF/HIF Prolyl-Hydroxylase

>  <Saltdate>
Free Base

>  <Smiles>
O=C1C2=C(O)C=CC(O)=C2C(C=C1[C@@H](C/C=C(C)/C)OC(/C=C(C)/C)=O)=O

>  <Solvent>
DMSO Solution

>  <Batch No.>
124629

>  <Quantity>
10mM  * 50uL

>  <Pathway>
Metabolic Enzyme/Protease

>  <Synonyms>
Isoarnebin I

>  <Formula>
C21H22O6

>  <Research_Area>
Cancer

>  <Clinical_Information>
No Development Reported

>  <SUPPLIER>
MedChemExpress

$$$$
Untitled Document
  ChemDraw12312016182D

 30 29  0  0  0  0  0  0  0  0999 V2000
   -3.9295   -0.0859    0.0000 C   0  0  0  0  0  0  0  0  0  0  0  0
   -4.6440   -0.4984    0.0000 C   0  0  0  0  0  0  0  0  0  0  0  0
   -5.3583   -0.0859    0.0000 C   0  0  0  0  0  0  0  0  0  0  0  0
   -6.0728   -0.4984    0.0000 C   0  0  0  0  0  0  0  0  0  0  0  0
   -6.7873   -0.0859    0.0000 C   0  0  0  0  0  0  0  0  0  0  0  0
   -7.5017   -0.4984    0.0000 C   0  0  0  0  0  0  0  0  0  0  0  0
   -8.2162   -0.0859    0.0000 C   0  0  0  0  0  0  0  0  0  0  0  0
   -8.9306   -0.4984    0.0000 C   0  0  0  0  0  0  0  0  0  0  0  0
   -3.9295    0.7391    0.0000 O   0  0  0  0  0  0  0  0  0  0  0  0
   -3.2150   -0.4984    0.0000 N   0  0  0  0  0  0  0  0  0  0  0  0
   -2.5005   -0.0859    0.0000 C   0  0  0  0  0  0  0  0  0  0  0  0
   -1.7861   -0.4984    0.0000 C   0  0  0  0  0  0  0  0  0  0  0  0
   -1.0717   -0.0859    0.0000 C   0  0  0  0  0  0  0  0  0  0  0  0
   -0.3572   -0.4984    0.0000 C   0  0  0  0  0  0  0  0  0  0  0  0
    0.3572   -0.0859    0.0000 C   0  0  0  0  0  0  0  0  0  0  0  0
    1.0717   -0.4984    0.0000 C   0  0  0  0  0  0  0  0  0  0  0  0
    1.7861   -0.0859    0.0000 C   0  0  0  0  0  0  0  0  0  0  0  0
    2.5005   -0.4984    0.0000 C   0  0  0  0  0  0  0  0  0  0  0  0
    3.2150   -0.0859    0.0000 C   0  0  0  0  0  0  0  0  0  0  0  0
    3.9295   -0.4984    0.0000 C   0  0  0  0  0  0  0  0  0  0  0  0
    4.6440   -0.0859    0.0000 C   0  0  0  0  0  0  0  0  0  0  0  0
    5.3583   -0.4984    0.0000 C   0  0  0  0  0  0  0  0  0  0  0  0
    6.0728   -0.0859    0.0000 C   0  0  0  0  0  0  0  0  0  0  0  0
    6.7873   -0.4984    0.0000 C   0  0  0  0  0  0  0  0  0  0  0  0
    7.5017   -0.0859    0.0000 C   0  0  0  0  0  0  0  0  0  0  0  0
    8.2162   -0.4984    0.0000 C   0  0  0  0  0  0  0  0  0  0  0  0
    8.9306   -0.0859    0.0000 C   0  0  0  0  0  0  0  0  0  0  0  0
   -2.5005    0.9109    0.0000 C   0  0  0  0  0  0  0  0  0  0  0  0
   -3.2150    1.3234    0.0000 O   0  0  0  0  0  0  0  0  0  0  0  0
   -1.7861   -1.3234    0.0000 O   0  0  0  0  0  0  0  0  0  0  0  0
  1  2  1  0      
  2  3  1  0      
  3  4  1  0      
  4  5  1  0      
  5  6  1  0      
  6  7  1  0      
  7  8  1  0      
  1  9  2  0      
  1 10  1  0      
 11 12  1  0      
 12 13  1  0      
 13 14  2  0      
 14 15  1  0      
 15 16  1  0      
 16 17  1  0      
 17 18  1  0      
 18 19  1  0      
 19 20  1  0      
 20 21  1  0      
 21 22  1  0      
 22 23  1  0      
 23 24  1  0      
 24 25  1  0      
 25 26  1  0      
 26 27  1  0      
 28 29  1  0      
 11 28  1  1      
 12 30  1  1      
 10 11  1  0      
M  END

>  <RackCode>
HYCPK72336

>  <Cat. No.>
HY-108391

>  <Product Name>
C8-Ceramide

>  <ROW>
B

>  <COLUMN>
18

>  <CAS No.>
74713-59-0

>  <MWt>
425.69

>  <Target>
Apoptosis; Autophagy; PKC

>  <Saltdate>


>  <Smiles>
CCCCCCCC(N[C@@H](CO)[C@H](O)/C=C/CCCCCCCCCCCCC)=O

>  <Solvent>
DMSO Solution

>  <Batch No.>
231862

>  <Quantity>
10mM  * 50uL

>  <Pathway>
Apoptosis; Autophagy; Epigenetics; TGF-beta/Smad

>  <Synonyms>
N-Octanoyl-D-erythro-sphingosine

>  <Formula>
C26H51NO3

>  <Research_Area>
Cancer; Inflammation/Immunology

>  <Clinical_Information>
No Development Reported

>  <SUPPLIER>
MedChemExpress

$$$$
Untitled Document
  ChemDraw11051815382D

 29 33  0  0  0  0  0  0  0  0999 V2000
    1.3705    3.0591    0.0000 C   0  0  0  0  0  0  0  0  0  0  0  0
    2.0849    2.6466    0.0000 C   0  0  0  0  0  0  0  0  0  0  0  0
    2.0849    1.8216    0.0000 C   0  0  0  0  0  0  0  0  0  0  0  0
    1.3705    1.4091    0.0000 C   0  0  0  0  0  0  0  0  0  0  0  0
    0.6560    1.8216    0.0000 C   0  0  0  0  0  0  0  0  0  0  0  0
    0.6560    2.6466    0.0000 O   0  0  0  0  0  0  0  0  0  0  0  0
   -0.0585    1.4091    0.0000 C   0  0  0  0  0  0  0  0  0  0  0  0
   -0.0585    0.5841    0.0000 C   0  0  0  0  0  0  0  0  0  0  0  0
    0.6560    0.1716    0.0000 C   0  0  0  0  0  0  0  0  0  0  0  0
    1.3705    0.5841    0.0000 C   0  0  0  0  0  0  0  0  0  0  0  0
   -0.7730    1.8216    0.0000 C   0  0  0  0  0  0  0  0  0  0  0  0
   -1.4874    1.4091    0.0000 O   0  0  0  0  0  0  0  0  0  0  0  0
    0.9580    3.7736    0.0000 C   0  0  0  0  0  0  0  0  0  0  0  0
    1.7830    3.7736    0.0000 C   0  0  0  0  0  0  0  0  0  0  0  0
    0.6560   -0.6534    0.0000 C   0  0  0  0  0  0  0  0  0  0  0  0
   -0.0585   -1.0659    0.0000 C   0  0  0  0  0  0  0  0  0  0  0  0
   -0.0585   -1.8909    0.0000 N   0  0  0  0  0  0  0  0  0  0  0  0
    0.6090   -2.3758    0.0000 C   0  0  0  0  0  0  0  0  0  0  0  0
    1.4159   -2.2043    0.0000 C   0  0  0  0  0  0  0  0  0  0  0  0
    1.9680   -2.8174    0.0000 C   0  0  0  0  0  0  0  0  0  0  0  0
    1.7130   -3.6020    0.0000 C   0  0  0  0  0  0  0  0  0  0  0  0
    0.9060   -3.7736    0.0000 C   0  0  0  0  0  0  0  0  0  0  0  0
    0.3540   -3.1605    0.0000 C   0  0  0  0  0  0  0  0  0  0  0  0
   -0.4710   -3.1605    0.0000 C   0  0  0  0  0  0  0  0  0  0  0  0
   -1.0230   -3.7736    0.0000 C   0  0  0  0  0  0  0  0  0  0  0  0
   -1.8300   -3.6020    0.0000 C   0  0  0  0  0  0  0  0  0  0  0  0
   -2.0849   -2.8174    0.0000 C   0  0  0  0  0  0  0  0  0  0  0  0
   -1.5329   -2.2043    0.0000 C   0  0  0  0  0  0  0  0  0  0  0  0
   -0.7259   -2.3758    0.0000 C   0  0  0  0  0  0  0  0  0  0  0  0
  1  2  1  0      
  2  3  2  0      
  3  4  1  0      
  4  5  1  0      
  5  6  1  0      
  1  6  1  0      
  7  8  1  0      
  8  9  2  0      
  9 10  1  0      
  4 10  2  0      
  5  7  2  0      
 11 12  2  0      
  7 11  1  0      
  1 13  1  0      
  1 14  1  0      
 15 16  1  0      
 17 18  1  0      
 18 19  1  0      
 19 20  2  0      
 20 21  1  0      
 21 22  2  0      
 22 23  1  0      
 18 23  2  0      
 23 24  1  0      
 24 25  1  0      
 25 26  2  0      
 26 27  1  0      
 27 28  2  0      
 28 29  1  0      
 24 29  2  0      
 17 29  1  0      
 16 17  1  0      
  9 15  1  0      
M  END

>  <RackCode>
HYCPK72336

>  <Cat. No.>
HY-117800

>  <Product Name>
BJE6-106

>  <ROW>
C

>  <COLUMN>
18

>  <CAS No.>
1564249-38-2

>  <MWt>
381.47

>  <Target>
Apoptosis; PKC

>  <Saltdate>
Free Base

>  <Smiles>
O=CC1=C2C(C=CC(C)(C)O2)=CC(CCN3C4=C(C5=C3C=CC=C5)C=CC=C4)=C1

>  <Solvent>
DMSO Solution

>  <Batch No.>
247605

>  <Quantity>
10mM  * 50uL

>  <Pathway>
Apoptosis; Epigenetics; TGF-beta/Smad

>  <Synonyms>
B106

>  <Formula>
C26H23NO2

>  <Research_Area>
Cancer; Inflammation/Immunology

>  <Clinical_Information>
No Development Reported

>  <SUPPLIER>
MedChemExpress

$$$$
Untitled Document
  ChemDraw04281810092D

 39 45  0  0  0  0  0  0  0  0999 V2000
    0.2589   -0.5976    0.0000 C   0  0  0  0  0  0  0  0  0  0  0  0
   -0.4555   -1.0101    0.0000 N   0  0  0  0  0  0  0  0  0  0  0  0
   -1.1700   -0.5976    0.0000 C   0  0  0  0  0  0  0  0  0  0  0  0
   -1.1700    0.2274    0.0000 C   0  0  0  0  0  0  0  0  0  0  0  0
   -0.4555    0.6399    0.0000 C   0  0  0  0  0  0  0  0  0  0  0  0
    0.2589    0.2274    0.0000 N   0  0  0  0  0  0  0  0  0  0  0  0
    1.0435    0.4823    0.0000 N   0  0  0  0  0  0  0  0  0  0  0  0
    1.5285   -0.1851    0.0000 C   0  0  0  0  0  0  0  0  0  0  0  0
    1.0435   -0.8525    0.0000 C   0  0  0  0  0  0  0  0  0  0  0  0
   -0.4555    1.4649    0.0000 O   0  0  0  0  0  0  0  0  0  0  0  0
   -1.8845   -1.0101    0.0000 N   0  0  0  0  0  0  0  0  0  0  0  0
   -1.8845   -1.8351    0.0000 C   0  0  0  0  0  0  0  0  0  0  0  0
   -2.5990   -2.2476    0.0000 C   0  0  0  0  0  0  0  0  0  0  0  0
   -2.5990   -3.0726    0.0000 C   0  0  0  0  0  0  0  0  0  0  0  0
   -1.8845   -3.4851    0.0000 C   0  0  0  0  0  0  0  0  0  0  0  0
   -1.1700   -3.0726    0.0000 C   0  0  0  0  0  0  0  0  0  0  0  0
   -1.1700   -2.2476    0.0000 N   0  0  0  0  0  0  0  0  0  0  0  0
    1.2985   -1.6372    0.0000 C   0  0  0  0  0  0  0  0  0  0  0  0
    2.1055   -1.8087    0.0000 C   0  0  0  0  0  0  0  0  0  0  0  0
    2.3604   -2.5933    0.0000 C   0  0  0  0  0  0  0  0  0  0  0  0
    1.8084   -3.2064    0.0000 C   0  0  0  0  0  0  0  0  0  0  0  0
    1.0014   -3.0349    0.0000 C   0  0  0  0  0  0  0  0  0  0  0  0
    0.7465   -2.2502    0.0000 C   0  0  0  0  0  0  0  0  0  0  0  0
    2.3535   -0.1851    0.0000 C   0  0  0  0  0  0  0  0  0  0  0  0
    2.7660    0.5294    0.0000 C   0  0  0  0  0  0  0  0  0  0  0  0
    3.5910    0.5294    0.0000 C   0  0  0  0  0  0  0  0  0  0  0  0
    4.0035   -0.1851    0.0000 C   0  0  0  0  0  0  0  0  0  0  0  0
    3.5910   -0.8996    0.0000 C   0  0  0  0  0  0  0  0  0  0  0  0
    2.7660   -0.8996    0.0000 C   0  0  0  0  0  0  0  0  0  0  0  0
   -2.7705    2.6844    0.0000 S   0  0  0  0  0  0  0  0  0  0  0  0
   -3.5910    2.7706    0.0000 C   0  0  0  0  0  0  0  0  0  0  0  0
   -3.9265    2.0169    0.0000 N   0  0  0  0  0  0  0  0  0  0  0  0
   -3.3134    1.4649    0.0000 C   0  0  0  0  0  0  0  0  0  0  0  0
   -2.5990    1.8774    0.0000 C   0  0  0  0  0  0  0  0  0  0  0  0
   -3.3134    0.6399    0.0000 C   0  0  0  0  0  0  0  0  0  0  0  0
   -2.5990    0.2274    0.0000 C   0  0  0  0  0  0  0  0  0  0  0  0
   -1.8845    0.6399    0.0000 C   0  0  0  0  0  0  0  0  0  0  0  0
   -1.8845    1.4649    0.0000 C   0  0  0  0  0  0  0  0  0  0  0  0
   -4.0035    3.4851    0.0000 C   0  0  0  0  0  0  0  0  0  0  0  0
  1  2  1  0      
  2  3  1  0      
  3  4  2  0      
  4  5  1  0      
  5  6  1  0      
  1  6  1  0      
  7  8  2  0      
  8  9  1  0      
  7  6  1  0      
  9  1  2  0      
  5 10  2  0      
 12 13  1  0      
 13 14  2  0      
 14 15  1  0      
 15 16  2  0      
 16 17  1  0      
 12 17  2  0      
 11 12  1  0      
  3 11  1  0      
 18 19  1  0      
 19 20  2  0      
 20 21  1  0      
 21 22  2  0      
 22 23  1  0      
 18 23  2  0      
  9 18  1  0      
 24 25  1  0      
 25 26  2  0      
 26 27  1  0      
 27 28  2  0      
 28 29  1  0      
 24 29  2  0      
  8 24  1  0      
 30 31  1  0      
 31 32  2  0      
 32 33  1  0      
 33 34  1  0      
 30 34  1  0      
 35 36  1  0      
 36 37  2  0      
 37 38  1  0      
 38 34  2  0      
 35 33  2  0      
 31 39  1  0      
  4 37  1  0      
M  END

>  <RackCode>
HYCPK72337

>  <Cat. No.>
HY-112131

>  <Product Name>
MAT2A inhibitor 1

>  <ROW>
A

>  <COLUMN>
3

>  <CAS No.>
2201057-10-3

>  <MWt>
526.61

>  <Target>
Methionine Adenosyltransferase (MAT)

>  <Saltdate>
Free Base

>  <Smiles>
O=C1C(C2=CC=C3N=C(C)SC3=C2)=C(NC4=NC=CC=C4)NC5=C(C6=CC=CC=C6)C(C7=CC=CC=C7)=NN15

>  <Solvent>
DMSO Solution

>  <Batch No.>
46140

>  <Quantity>
2mM  * 50uL

>  <Pathway>
Epigenetics; Metabolic Enzyme/Protease

>  <Synonyms>


>  <Formula>
C31H22N6OS

>  <Research_Area>
Cancer

>  <Clinical_Information>
No Development Reported

>  <SUPPLIER>
MedChemExpress

$$$$
Untitled Document
  ChemDraw12021913092D

 35 39  0  0  0  0  0  0  0  0999 V2000
    2.5582    0.0723    0.0000 C   0  0  0  0  0  0  0  0  0  0  0  0
    2.8596    0.8402    0.0000 N   0  0  0  0  0  0  0  0  0  0  0  0
    2.2319    1.3745    0.0000 C   0  0  0  0  0  0  0  0  0  0  0  0
    1.5503    0.9097    0.0000 C   0  0  0  0  0  0  0  0  0  0  0  0
    0.8070    1.2677    0.0000 C   0  0  0  0  0  0  0  0  0  0  0  0
    0.0637    0.9097    0.0000 C   0  0  0  0  0  0  0  0  0  0  0  0
   -0.1199    0.1054    0.0000 C   0  0  0  0  0  0  0  0  0  0  0  0
    0.3945   -0.5396    0.0000 N   0  0  0  0  0  0  0  0  0  0  0  0
    1.2195   -0.5396    0.0000 C   0  0  0  0  0  0  0  0  0  0  0  0
    1.7338    0.1054    0.0000 C   0  0  0  0  0  0  0  0  0  0  0  0
    0.7453    2.0904    0.0000 C   0  0  0  0  0  0  0  0  0  0  0  0
    1.4270    2.5551    0.0000 N   0  0  0  0  0  0  0  0  0  0  0  0
    2.1703    2.1972    0.0000 C   0  0  0  0  0  0  0  0  0  0  0  0
   -0.9083   -0.1378    0.0000 C   0  0  0  0  0  0  0  0  0  0  0  0
   -1.5130    0.4234    0.0000 C   0  0  0  0  0  0  0  0  0  0  0  0
   -1.3294    1.2277    0.0000 C   0  0  0  0  0  0  0  0  0  0  0  0
   -0.5411    1.4709    0.0000 C   0  0  0  0  0  0  0  0  0  0  0  0
   -2.3014    0.1802    0.0000 C   0  0  0  0  0  0  0  0  0  0  0  0
   -2.5149   -0.6167    0.0000 O   0  0  0  0  0  0  0  0  0  0  0  0
   -2.8847    0.7636    0.0000 O   0  0  0  0  0  0  0  0  0  0  0  0
    2.8847    2.6097    0.0000 O   0  0  0  0  0  0  0  0  0  0  0  0
   -1.9342    1.7888    0.0000 C   0  0  0  0  0  0  0  0  0  0  0  0
   -1.7506    2.5932    0.0000 S   0  0  0  0  0  0  0  0  0  0  0  0
   -2.5549    2.7767    0.0000 O   0  0  0  0  0  0  0  0  0  0  0  0
   -0.9463    2.4096    0.0000 O   0  0  0  0  0  0  0  0  0  0  0  0
   -1.5671    3.3975    0.0000 C   0  0  0  0  0  0  0  0  0  0  0  0
    1.4270    3.3801    0.0000 C   0  0  0  0  0  0  0  0  0  0  0  0
   -0.0180   -1.2541    0.0000 C   0  0  0  0  0  0  0  0  0  0  0  0
    0.3945   -1.9685    0.0000 C   0  0  0  0  0  0  0  0  0  0  0  0
   -0.0180   -2.6830    0.0000 C   0  0  0  0  0  0  0  0  0  0  0  0
   -0.8430   -2.6830    0.0000 C   0  0  0  0  0  0  0  0  0  0  0  0
   -1.2555   -1.9685    0.0000 C   0  0  0  0  0  0  0  0  0  0  0  0
   -0.8430   -1.2541    0.0000 N   0  0  0  0  0  0  0  0  0  0  0  0
   -1.2555   -3.3975    0.0000 F   0  0  0  0  0  0  0  0  0  0  0  0
    1.2195   -1.9685    0.0000 F   0  0  0  0  0  0  0  0  0  0  0  0
  1  2  1  0      
  2  3  1  0      
  3  4  2  0      
  4  5  1  0      
  5  6  1  0      
  6  7  1  0      
  7  8  1  0      
  8  9  1  0      
  9 10  1  0      
  1 10  2  0      
  4 10  1  0      
 11 12  1  0      
 12 13  1  0      
 13  3  1  0      
 11  5  2  0      
 14 15  1  0      
 15 16  2  0      
 16 17  1  0      
 17  6  2  0      
 14  7  2  0      
 18 19  2  0      
 18 20  1  0      
 15 18  1  0      
 13 21  2  0      
 23 24  2  0      
 23 25  2  0      
 23 26  1  0      
 22 23  1  0      
 16 22  1  0      
 12 27  1  0      
 28 29  1  0      
 29 30  2  0      
 30 31  1  0      
 31 32  2  0      
 32 33  1  0      
 28 33  2  0      
 31 34  1  0      
 29 35  1  0      
  8 28  1  0      
M  END

>  <RackCode>
HYCPK72337

>  <Cat. No.>
HY-129939

>  <Product Name>
PROTAC BRD4 ligand-1

>  <ROW>
B

>  <COLUMN>
3

>  <CAS No.>
2313230-51-0

>  <MWt>
500.47

>  <Target>
Epigenetic Reader Domain; Ligands for Target Protein for PROTAC

>  <Saltdate>
Free Acid

>  <Smiles>
O=C(C1=C(CS(=O)(C)=O)C=C(C(N(C2=NC=C(F)C=C2F)C3)=C1)C4=CN(C)C(C5=C4C3=CN5)=O)O

>  <Solvent>
DMSO Solution

>  <Batch No.>
59438

>  <Quantity>
2mM  * 50uL

>  <Pathway>
Epigenetics; PROTAC

>  <Synonyms>


>  <Formula>
C23H18F2N4O5S

>  <Research_Area>
Cancer

>  <Clinical_Information>
No Development Reported

>  <SUPPLIER>
MedChemExpress

$$$$
Untitled Document
  ChemDraw05252017252D

 37 41  0  0  0  0  0  0  0  0999 V2000
   -4.7256    0.7518    0.0000 C   0  0  0  0  0  0  0  0  0  0  0  0
   -4.7256   -0.0732    0.0000 N   0  0  0  0  0  0  0  0  0  0  0  0
   -4.0112   -0.4857    0.0000 C   0  0  0  0  0  0  0  0  0  0  0  0
   -3.2967   -0.0732    0.0000 C   0  0  0  0  0  0  0  0  0  0  0  0
   -3.2967    0.7518    0.0000 C   0  0  0  0  0  0  0  0  0  0  0  0
   -4.0112    1.1643    0.0000 C   0  0  0  0  0  0  0  0  0  0  0  0
   -5.4376   -0.4842    0.0000 C   0  0  0  0  0  0  0  0  0  0  0  0
   -2.5847    1.1629    0.0000 N   0  0  0  0  0  0  0  0  0  0  0  0
   -1.8702    0.7504    0.0000 C   0  0  0  0  0  0  0  0  0  0  0  0
   -1.1558    1.1629    0.0000 C   0  0  0  0  0  0  0  0  0  0  0  0
   -1.1558    1.9879    0.0000 C   0  0  0  0  0  0  0  0  0  0  0  0
   -1.8702    2.4004    0.0000 C   0  0  0  0  0  0  0  0  0  0  0  0
   -2.5847    1.9879    0.0000 C   0  0  0  0  0  0  0  0  0  0  0  0
   -0.3711    0.9080    0.0000 N   0  0  0  0  0  0  0  0  0  0  0  0
    0.1138    1.5754    0.0000 C   0  0  0  0  0  0  0  0  0  0  0  0
   -0.3711    2.2428    0.0000 N   0  0  0  0  0  0  0  0  0  0  0  0
    0.9359    1.5754    0.0000 C   0  0  0  0  0  0  0  0  0  0  0  0
    1.4209    0.9080    0.0000 C   0  0  0  0  0  0  0  0  0  0  0  0
    2.2055    1.1629    0.0000 C   0  0  0  0  0  0  0  0  0  0  0  0
    2.2055    1.9879    0.0000 N   0  0  0  0  0  0  0  0  0  0  0  0
    1.4209    2.2428    0.0000 N   0  0  0  0  0  0  0  0  0  0  0  0
    1.2493    0.1010    0.0000 C   0  0  0  0  0  0  0  0  0  0  0  0
    1.8624   -0.4510    0.0000 C   0  0  0  0  0  0  0  0  0  0  0  0
    2.6470   -0.1961    0.0000 C   0  0  0  0  0  0  0  0  0  0  0  0
    2.8186    0.6109    0.0000 C   0  0  0  0  0  0  0  0  0  0  0  0
    3.2580   -0.7462    0.0000 C   0  0  0  0  0  0  0  0  0  0  0  0
    3.0865   -1.5532    0.0000 C   0  0  0  0  0  0  0  0  0  0  0  0
    3.6996   -2.1052    0.0000 C   0  0  0  0  0  0  0  0  0  0  0  0
    4.4842   -1.8503    0.0000 C   0  0  0  0  0  0  0  0  0  0  0  0
    4.6557   -1.0433    0.0000 C   0  0  0  0  0  0  0  0  0  0  0  0
    4.0426   -0.4913    0.0000 C   0  0  0  0  0  0  0  0  0  0  0  0
    2.3046   -1.8072    0.0000 C   0  0  0  0  0  0  0  0  0  0  0  0
    1.7212   -1.2239    0.0000 C   0  0  0  0  0  0  0  0  0  0  0  0
    5.4376   -0.7893    0.0000 F   0  0  0  0  0  0  0  0  0  0  0  0
    5.0952   -2.4004    0.0000 O   0  0  0  0  0  0  0  0  0  0  0  0
   -0.9603   -1.1817    0.0000 H   0  0  0  0  0  0  0  0  0  0  0  0
   -0.1353   -1.1817    0.0000 Cl  0  0  0  0  0  0  0  0  0  0  0  0
  1  2  1  0      
  2  3  1  0      
  3  4  1  0      
  4  5  1  0      
  5  6  1  0      
  6  1  1  0      
  2  7  1  0      
  5  8  1  0      
  8  9  1  0      
  9 10  1  0      
 10 11  2  0      
 11 12  1  0      
 12 13  1  0      
 13  8  1  0      
 10 14  1  0      
 14 15  2  0      
 15 16  1  0      
 16 11  1  0      
 15 17  1  0      
 17 18  1  0      
 18 19  2  0      
 19 20  1  0      
 20 21  1  0      
 21 17  2  0      
 18 22  1  0      
 22 23  2  0      
 23 24  1  0      
 24 25  2  0      
 25 19  1  0      
 24 26  1  0      
 26 27  2  0      
 27 28  1  0      
 28 29  2  0      
 29 30  1  0      
 30 31  2  0      
 31 26  1  0      
 27 32  1  0      
 32 33  1  0      
 30 34  1  0      
 29 35  1  0      
 36 37  1  0      
M  END

>  <RackCode>
HYCPK72337

>  <Cat. No.>
HY-111471A

>  <Product Name>
JAK-IN-5 (hydrochloride)

>  <ROW>
C

>  <COLUMN>
3

>  <CAS No.>
2751323-21-2

>  <MWt>
511.03

>  <Target>
JAK

>  <Saltdate>
Hydrochloride

>  <Smiles>
CN1CCC(N2CC(N=C(C3=NNC4=C3C=CC(C5=C(CC)C=C(O)C(F)=C5)=C4)N6)=C6CC2)CC1.[H]Cl

>  <Solvent>
DMSO Solution

>  <Batch No.>
64856

>  <Quantity>
2mM  * 50uL

>  <Pathway>
Epigenetics; JAK/STAT Signaling; Protein Tyrosine Kinase/RTK; Stem Cell/Wnt

>  <Synonyms>


>  <Formula>
C27H32ClFN6O

>  <Research_Area>
Inflammation/Immunology

>  <Clinical_Information>
No Development Reported

>  <SUPPLIER>
MedChemExpress

$$$$
Untitled Document
  ChemDraw03051815312D

 42 46  0  0  0  0  0  0  0  0999 V2000
    0.3465   -0.2063    0.0000 C   0  0  0  0  0  0  0  0  0  0  0  0
    0.3465   -1.0313    0.0000 C   0  0  0  0  0  0  0  0  0  0  0  0
    1.0610   -1.4438    0.0000 C   0  0  0  0  0  0  0  0  0  0  0  0
    1.7755   -1.0313    0.0000 C   0  0  0  0  0  0  0  0  0  0  0  0
    1.7755   -0.2063    0.0000 C   0  0  0  0  0  0  0  0  0  0  0  0
    1.0610    0.2062    0.0000 C   0  0  0  0  0  0  0  0  0  0  0  0
   -0.4381    0.0487    0.0000 C   0  0  0  0  0  0  0  0  0  0  0  0
   -0.9230   -0.6188    0.0000 C   0  0  0  0  0  0  0  0  0  0  0  0
   -0.4381   -1.2862    0.0000 O   0  0  0  0  0  0  0  0  0  0  0  0
   -1.7452   -0.6188    0.0000 C   0  0  0  0  0  0  0  0  0  0  0  0
    2.4874    0.2048    0.0000 C   0  0  0  0  0  0  0  0  0  0  0  0
    3.1994   -0.2063    0.0000 C   0  0  0  0  0  0  0  0  0  0  0  0
    2.4874   -1.4423    0.0000 N   0  0  0  0  0  0  0  0  0  0  0  0
    3.1994   -1.0313    0.0000 C   0  0  0  0  0  0  0  0  0  0  0  0
    3.9114   -1.4423    0.0000 C   0  0  0  0  0  0  0  0  0  0  0  0
    2.4874   -2.2645    0.0000 C   0  0  0  0  0  0  0  0  0  0  0  0
    1.0610    1.0284    0.0000 C   0  0  0  0  0  0  0  0  0  0  0  0
    0.3490    1.4395    0.0000 O   0  0  0  0  0  0  0  0  0  0  0  0
    1.7730    1.4395    0.0000 N   0  0  0  0  0  0  0  0  0  0  0  0
    1.7730    2.2645    0.0000 C   0  0  0  0  0  0  0  0  0  0  0  0
    2.4874    2.6770    0.0000 C   0  0  0  0  0  0  0  0  0  0  0  0
    3.2019    2.2645    0.0000 C   0  0  0  0  0  0  0  0  0  0  0  0
    3.2019    1.4395    0.0000 O   0  0  0  0  0  0  0  0  0  0  0  0
    3.9164    2.6770    0.0000 N   0  0  0  0  0  0  0  0  0  0  0  0
    3.9164    3.5020    0.0000 C   0  0  0  0  0  0  0  0  0  0  0  0
    3.2019    3.9145    0.0000 C   0  0  0  0  0  0  0  0  0  0  0  0
    2.4874    3.5020    0.0000 C   0  0  0  0  0  0  0  0  0  0  0  0
   -2.1577    0.0957    0.0000 C   0  0  0  0  0  0  0  0  0  0  0  0
   -2.9827    0.0957    0.0000 C   0  0  0  0  0  0  0  0  0  0  0  0
   -3.3952   -0.6188    0.0000 N   0  0  0  0  0  0  0  0  0  0  0  0
   -2.9827   -1.3332    0.0000 C   0  0  0  0  0  0  0  0  0  0  0  0
   -2.1577   -1.3332    0.0000 C   0  0  0  0  0  0  0  0  0  0  0  0
    1.7755    3.9130    0.0000 C   0  0  0  0  0  0  0  0  0  0  0  0
    4.6284    3.9130    0.0000 C   0  0  0  0  0  0  0  0  0  0  0  0
   -4.2173   -0.6188    0.0000 C   0  0  0  0  0  0  0  0  0  0  0  0
   -4.6284    0.0932    0.0000 C   0  0  0  0  0  0  0  0  0  0  0  0
   -4.6284   -1.3307    0.0000 C   0  0  0  0  0  0  0  0  0  0  0  0
    1.7730   -2.6770    0.0000 C   0  0  0  0  0  0  0  0  0  0  0  0
    1.7730   -3.5020    0.0000 C   0  0  0  0  0  0  0  0  0  0  0  0
    2.4874   -3.9145    0.0000 O   0  0  0  0  0  0  0  0  0  0  0  0
    3.2019   -3.5020    0.0000 C   0  0  0  0  0  0  0  0  0  0  0  0
    3.2019   -2.6770    0.0000 C   0  0  0  0  0  0  0  0  0  0  0  0
  1  2  2  0      
  2  3  1  0      
  3  4  2  0      
  4  5  1  0      
  5  6  2  0      
  6  1  1  0      
  1  7  1  0      
  7  8  2  0      
  8  9  1  0      
  9  2  1  0      
  8 10  1  0      
  5 11  1  0      
 11 12  1  0      
  4 13  1  0      
 13 14  1  0      
 14 15  1  0      
 13 16  1  0      
  6 17  1  0      
 17 18  2  0      
 17 19  1  0      
 19 20  1  0      
 20 21  1  0      
 21 22  1  0      
 22 23  2  0      
 22 24  1  0      
 24 25  1  0      
 25 26  2  0      
 26 27  1  0      
 27 21  2  0      
 10 28  1  0      
 28 29  1  0      
 29 30  1  0      
 30 31  1  0      
 31 32  1  0      
 32 10  1  0      
 27 33  1  0      
 25 34  1  0      
 30 35  1  0      
 35 36  1  0      
 35 37  1  0      
 16 38  1  0      
 38 39  1  0      
 39 40  1  0      
 40 41  1  0      
 41 42  1  0      
 42 16  1  0      
M  END

>  <RackCode>
HYCPK72337

>  <Cat. No.>
HY-111418

>  <Product Name>
EBI-2511

>  <ROW>
D

>  <COLUMN>
3

>  <CAS No.>
2098546-05-3

>  <MWt>
576.77

>  <Target>
Histone Methyltransferase

>  <Saltdate>
Free Base

>  <Smiles>
CCC1=C(C(NCC2=C(C)C=C(C)NC2=O)=O)C(C=C(C3CCN(C(C)C)CC3)O4)=C4C=C1N(C5CCOCC5)CC

>  <Solvent>
DMSO Solution

>  <Batch No.>
36876

>  <Quantity>
2mM  * 50uL

>  <Pathway>
Epigenetics

>  <Synonyms>


>  <Formula>
C34H48N4O4

>  <Research_Area>
Cancer

>  <Clinical_Information>
No Development Reported

>  <SUPPLIER>
MedChemExpress

$$$$
Untitled Document
  ChemDraw04241414292D

 49 51  0  0  0  0  0  0  0  0999 V2000
    2.2506    1.4438    0.0000 C   0  0  0  0  0  0  0  0  0  0  0  0
    2.9651    1.0313    0.0000 C   0  0  0  0  0  0  0  0  0  0  0  0
    3.6795    1.4438    0.0000 C   0  0  0  0  0  0  0  0  0  0  0  0
    4.3940    1.0313    0.0000 C   0  0  0  0  0  0  0  0  0  0  0  0
    2.2506    2.2688    0.0000 O   0  0  0  0  0  0  0  0  0  0  0  0
    2.9651    0.2062    0.0000 C   0  0  0  0  0  0  0  0  0  0  0  0
    1.5361    1.0313    0.0000 C   0  0  0  0  0  0  0  0  0  0  0  0
    1.5361    0.2062    0.0000 C   0  0  0  0  0  0  0  0  0  0  0  0
    0.8216   -0.2062    0.0000 C   0  0  0  0  0  0  0  0  0  0  0  0
    0.1072    0.2062    0.0000 C   0  0  0  0  0  0  0  0  0  0  0  0
    0.1072    1.0313    0.0000 C   0  0  0  0  0  0  0  0  0  0  0  0
    0.8216    1.4438    0.0000 C   0  0  0  0  0  0  0  0  0  0  0  0
    0.8216    2.2688    0.0000 O   0  0  0  0  0  0  0  0  0  0  0  0
   -0.6073   -0.2062    0.0000 O   0  0  0  0  0  0  0  0  0  0  0  0
    2.2506   -0.2062    0.0000 O   0  0  0  0  0  0  0  0  0  0  0  0
   -0.8216    1.5675    0.0000 C   0  0  0  0  0  0  0  0  0  0  0  0
   -0.8216    2.6400    0.0000 C   0  0  0  0  0  0  0  0  0  0  0  0
   -0.1072    3.0525    0.0000 C   0  0  0  0  0  0  0  0  0  0  0  0
   -0.1072    3.8775    0.0000 C   0  0  0  0  0  0  0  0  0  0  0  0
   -0.8216    4.2900    0.0000 C   0  0  0  0  0  0  0  0  0  0  0  0
   -1.5361    3.8775    0.0000 C   0  0  0  0  0  0  0  0  0  0  0  0
   -1.5361    3.0525    0.0000 C   0  0  0  0  0  0  0  0  0  0  0  0
   -2.2506    4.2900    0.0000 C   0  0  0  0  0  0  0  0  0  0  0  0
   -2.9651    3.8775    0.0000 C   0  0  0  0  0  0  0  0  0  0  0  0
   -3.6795    4.2900    0.0000 C   0  0  0  0  0  0  0  0  0  0  0  0
   -4.3940    3.8775    0.0000 C   0  0  0  0  0  0  0  0  0  0  0  0
   -2.2506    5.1150    0.0000 O   0  0  0  0  0  0  0  0  0  0  0  0
    0.6073    4.2900    0.0000 C   0  0  0  0  0  0  0  0  0  0  0  0
   -0.8216    5.1150    0.0000 O   0  0  0  0  0  0  0  0  0  0  0  0
   -1.5361    5.5275    0.0000 C   0  0  0  0  0  0  0  0  0  0  0  0
   -2.2506    2.6400    0.0000 O   0  0  0  0  0  0  0  0  0  0  0  0
    0.6073    2.6400    0.0000 O   0  0  0  0  0  0  0  0  0  0  0  0
    0.8216   -1.2788    0.0000 C   0  0  0  0  0  0  0  0  0  0  0  0
   -0.1072   -1.8150    0.0000 C   0  0  0  0  0  0  0  0  0  0  0  0
   -0.8216   -1.4025    0.0000 C   0  0  0  0  0  0  0  0  0  0  0  0
   -1.5361   -1.8150    0.0000 C   0  0  0  0  0  0  0  0  0  0  0  0
   -1.5361   -2.6400    0.0000 C   0  0  0  0  0  0  0  0  0  0  0  0
   -0.8216   -3.0525    0.0000 C   0  0  0  0  0  0  0  0  0  0  0  0
   -0.1072   -2.6400    0.0000 C   0  0  0  0  0  0  0  0  0  0  0  0
   -0.8216   -3.8775    0.0000 C   0  0  0  0  0  0  0  0  0  0  0  0
   -1.5361   -4.2900    0.0000 C   0  0  0  0  0  0  0  0  0  0  0  0
   -1.5361   -5.1150    0.0000 C   0  0  0  0  0  0  0  0  0  0  0  0
   -2.2506   -5.5275    0.0000 C   0  0  0  0  0  0  0  0  0  0  0  0
   -0.1072   -4.2900    0.0000 O   0  0  0  0  0  0  0  0  0  0  0  0
   -2.2506   -1.4025    0.0000 C   0  0  0  0  0  0  0  0  0  0  0  0
   -2.2506   -3.0525    0.0000 O   0  0  0  0  0  0  0  0  0  0  0  0
   -2.9651   -2.6400    0.0000 C   0  0  0  0  0  0  0  0  0  0  0  0
    0.6073   -3.0525    0.0000 O   0  0  0  0  0  0  0  0  0  0  0  0
   -0.8216   -0.5775    0.0000 O   0  0  0  0  0  0  0  0  0  0  0  0
  1  2  1  0      
  2  3  1  0      
  3  4  1  0      
  1  5  2  0      
  2  6  1  6      
  7  8  1  0      
  8  9  2  0      
  9 10  1  0      
 10 11  2  0      
 11 12  1  0      
  7 12  2  0      
 12 13  1  0      
 10 14  1  0      
  8 15  1  0      
 17 18  1  0      
 18 19  2  0      
 19 20  1  0      
 20 21  2  0      
 21 22  1  0      
 17 22  2  0      
 23 24  1  0      
 24 25  1  0      
 25 26  1  0      
 23 27  2  0      
 21 23  1  0      
 19 28  1  0      
 29 30  1  0      
 20 29  1  0      
 22 31  1  0      
 18 32  1  0      
 16 17  1  0      
 11 16  1  0      
 34 35  1  0      
 35 36  2  0      
 36 37  1  0      
 37 38  2  0      
 38 39  1  0      
 34 39  2  0      
 40 41  1  0      
 41 42  1  0      
 42 43  1  0      
 40 44  2  0      
 38 40  1  0      
 36 45  1  0      
 46 47  1  0      
 37 46  1  0      
 39 48  1  0      
 35 49  1  0      
 33 34  1  0      
  9 33  1  0      
  1  7  1  0      
M  END

>  <RackCode>
HYCPK72337

>  <Cat. No.>
HY-N0704

>  <Product Name>
Agrimol B

>  <ROW>
E

>  <COLUMN>
3

>  <CAS No.>
55576-66-4

>  <MWt>
682.75

>  <Target>
Bacterial; c-Myc; Fatty Acid Synthase (FASN); PPAR; Sirtuin

>  <Saltdate>
Free Base

>  <Smiles>
CC[C@H](C)C(C1=C(O)C(CC2=C(O)C(C(CCC)=O)=C(OC)C(C)=C2O)=C(O)C(CC3=C(O)C(C(CCC)=O)=C(OC)C(C)=C3O)=C1O)=O

>  <Solvent>
DMSO Solution

>  <Batch No.>
281052

>  <Quantity>
2mM  * 50uL

>  <Pathway>
Anti-infection; Apoptosis; Cell Cycle/DNA Damage; Epigenetics; Metabolic Enzyme/Protease; Vitamin D Related/Nuclear Receptor

>  <Synonyms>


>  <Formula>
C37H46O12

>  <Research_Area>
Cancer; Infection; Metabolic Disease

>  <Clinical_Information>
No Development Reported

>  <SUPPLIER>
MedChemExpress

$$$$
Untitled Document
  ChemDraw05101917262D

 34 38  0  0  0  0  0  0  0  0999 V2000
    4.5728   -3.0667    0.0000 C   0  0  0  0  0  0  0  0  0  0  0  0
    4.1603   -2.3523    0.0000 N   0  0  0  0  0  0  0  0  0  0  0  0
    3.3353   -2.3523    0.0000 C   0  0  0  0  0  0  0  0  0  0  0  0
    2.9228   -3.0667    0.0000 C   0  0  0  0  0  0  0  0  0  0  0  0
    2.0978   -3.0667    0.0000 C   0  0  0  0  0  0  0  0  0  0  0  0
    1.6853   -2.3523    0.0000 C   0  0  0  0  0  0  0  0  0  0  0  0
    0.8603   -2.3523    0.0000 C   0  0  0  0  0  0  0  0  0  0  0  0
    0.3754   -1.6848    0.0000 N   0  0  0  0  0  0  0  0  0  0  0  0
   -0.4092   -1.9398    0.0000 C   0  0  0  0  0  0  0  0  0  0  0  0
   -1.1237   -1.5273    0.0000 C   0  0  0  0  0  0  0  0  0  0  0  0
   -1.8382   -1.9398    0.0000 C   0  0  0  0  0  0  0  0  0  0  0  0
   -2.5526   -1.5273    0.0000 Cl  0  0  0  0  0  0  0  0  0  0  0  0
   -1.8382   -2.7648    0.0000 C   0  0  0  0  0  0  0  0  0  0  0  0
   -1.1237   -3.1773    0.0000 N   0  0  0  0  0  0  0  0  0  0  0  0
   -0.4092   -2.7648    0.0000 C   0  0  0  0  0  0  0  0  0  0  0  0
    0.3754   -3.0197    0.0000 N   0  0  0  0  0  0  0  0  0  0  0  0
   -1.1237   -0.7023    0.0000 N   0  0  0  0  0  0  0  0  0  0  0  0
   -1.8382   -0.2898    0.0000 C   0  0  0  0  0  0  0  0  0  0  0  0
   -1.8382    0.5352    0.0000 C   0  0  0  0  0  0  0  0  0  0  0  0
   -1.1237    0.9477    0.0000 N   0  0  0  0  0  0  0  0  0  0  0  0
   -0.4092    0.5352    0.0000 C   0  0  0  0  0  0  0  0  0  0  0  0
   -0.4092   -0.2898    0.0000 C   0  0  0  0  0  0  0  0  0  0  0  0
   -1.1237    1.7727    0.0000 C   0  0  0  0  0  0  0  0  0  0  0  0
   -1.8382    2.1852    0.0000 C   0  0  0  0  0  0  0  0  0  0  0  0
   -2.5526    1.7727    0.0000 N   0  0  0  0  0  0  0  0  0  0  0  0
   -3.2671    2.1852    0.0000 C   0  0  0  0  0  0  0  0  0  0  0  0
   -4.0208    1.8497    0.0000 N   0  0  0  0  0  0  0  0  0  0  0  0
   -4.5728    2.4628    0.0000 C   0  0  0  0  0  0  0  0  0  0  0  0
   -4.1603    3.1773    0.0000 C   0  0  0  0  0  0  0  0  0  0  0  0
   -3.3533    3.0057    0.0000 S   0  0  0  0  0  0  0  0  0  0  0  0
   -1.8382    3.0102    0.0000 O   0  0  0  0  0  0  0  0  0  0  0  0
    2.0978   -1.6378    0.0000 C   0  0  0  0  0  0  0  0  0  0  0  0
    2.9228   -1.6378    0.0000 C   0  0  0  0  0  0  0  0  0  0  0  0
    4.5728   -1.6378    0.0000 C   0  0  0  0  0  0  0  0  0  0  0  0
  1  2  1  0      
  2  3  1  0      
  3  4  2  0      
  4  5  1  0      
  5  6  2  0      
  6  7  1  0      
  7  8  2  0      
  8  9  1  0      
  9 10  2  0      
 10 11  1  0      
 11 12  1  0      
 11 13  2  0      
 13 14  1  0      
 14 15  2  0      
  9 15  1  0      
 15 16  1  0      
  7 16  1  0      
 10 17  1  0      
 17 18  1  0      
 18 19  1  0      
 19 20  1  0      
 20 21  1  0      
 21 22  1  0      
 17 22  1  0      
 20 23  1  0      
 23 24  1  0      
 24 25  1  0      
 25 26  1  0      
 26 27  2  0      
 27 28  1  0      
 28 29  2  0      
 29 30  1  0      
 26 30  1  0      
 24 31  2  0      
  6 32  1  0      
 32 33  2  0      
  3 33  1  0      
  2 34  1  0      
M  END

>  <RackCode>
HYCPK72337

>  <Cat. No.>
HY-12049

>  <Product Name>
CCT129202

>  <ROW>
F

>  <COLUMN>
3

>  <CAS No.>
942947-93-5

>  <MWt>
497.02

>  <Target>
Aurora Kinase

>  <Saltdate>
Free Base

>  <Smiles>
CN(C1=CC=C(C2=NC3=C(C(Cl)=CN=C3N2)N4CCN(CC4)CC(NC5=NC=CS5)=O)C=C1)C

>  <Solvent>
DMSO Solution

>  <Batch No.>
04994

>  <Quantity>
2mM  * 50uL

>  <Pathway>
Cell Cycle/DNA Damage; Epigenetics

>  <Synonyms>


>  <Formula>
C23H25ClN8OS

>  <Research_Area>
Cancer

>  <Clinical_Information>
No Development Reported

>  <SUPPLIER>
MedChemExpress

$$$$
Untitled Document
  ChemDraw04242315042D

 25 27  0  0  0  0  0  0  0  0999 V2000
    1.4289    0.4125    0.0000 C   0  0  0  0  0  0  0  0  0  0  0  0
    2.1433    0.0000    0.0000 C   0  0  0  0  0  0  0  0  0  0  0  0
    2.1433   -0.8250    0.0000 C   0  0  0  0  0  0  0  0  0  0  0  0
    1.4289   -1.2375    0.0000 C   0  0  0  0  0  0  0  0  0  0  0  0
    0.7145   -0.8250    0.0000 N   0  3  0  0  0  0  0  0  0  0  0  0
    0.0000   -1.2375    0.0000 C   0  0  0  0  0  0  0  0  0  0  0  0
   -0.7145   -0.8250    0.0000 C   0  0  0  0  0  0  0  0  0  0  0  0
   -0.7145    0.0000    0.0000 C   0  0  0  0  0  0  0  0  0  0  0  0
    0.0000    0.4125    0.0000 C   0  0  0  0  0  0  0  0  0  0  0  0
    0.7145    0.0000    0.0000 C   0  0  0  0  0  0  0  0  0  0  0  0
    2.8578    0.4125    0.0000 C   0  0  0  0  0  0  0  0  0  0  0  0
    2.8578    1.2375    0.0000 C   0  0  0  0  0  0  0  0  0  0  0  0
    2.1433    1.6500    0.0000 C   0  0  0  0  0  0  0  0  0  0  0  0
    1.4289    1.2375    0.0000 C   0  0  0  0  0  0  0  0  0  0  0  0
   -1.4289    0.4125    0.0000 C   0  0  0  0  0  0  0  0  0  0  0  0
   -2.1433    0.0000    0.0000 C   0  0  0  0  0  0  0  0  0  0  0  0
   -2.1433   -0.8250    0.0000 C   0  0  0  0  0  0  0  0  0  0  0  0
   -1.4289   -1.2375    0.0000 C   0  0  0  0  0  0  0  0  0  0  0  0
   -2.8578   -1.2375    0.0000 O   0  0  0  0  0  0  0  0  0  0  0  0
   -3.5723   -0.8250    0.0000 C   0  0  0  0  0  0  0  0  0  0  0  0
   -1.4289   -2.0624    0.0000 O   0  0  0  0  0  0  0  0  0  0  0  0
   -2.1433   -2.4749    0.0000 C   0  0  0  0  0  0  0  0  0  0  0  0
    3.5723    1.6500    0.0000 O   0  0  0  0  0  0  0  0  0  0  0  0
    2.1433    2.4749    0.0000 O   0  0  0  0  0  0  0  0  0  0  0  0
    0.6948   -1.8269    0.0000 Cl  0  5  0  0  0  0  0  0  0  0  0  0
  1  2  1  0      
  2  3  1  0      
  3  4  1  0      
  4  5  1  0      
  5  6  1  0      
  6  7  2  0      
  7  8  1  0      
  8  9  2  0      
  9 10  1  0      
  5 10  2  0      
  1 10  1  0      
 11 12  1  0      
 12 13  2  0      
 13 14  1  0      
  1 14  2  0      
  2 11  2  0      
 15 16  2  0      
 16 17  1  0      
 17 18  2  0      
  7 18  1  0      
  8 15  1  0      
 19 20  1  0      
 17 19  1  0      
 21 22  1  0      
 18 21  1  0      
 12 23  1  0      
 13 24  1  0      
M  CHG  2   5   1  25  -1
M  END

>  <RackCode>
HYCPK72337

>  <Cat. No.>
HY-N0592A

>  <Product Name>
Demethyleneberberine (chloride)

>  <ROW>
G

>  <COLUMN>
3

>  <CAS No.>
16705-03-6

>  <MWt>
359.80

>  <Target>
AMPK; NF-¦ÊB

>  <Saltdate>
Chloride

>  <Smiles>
COC1=C(OC)C2=C[N+]3=C(C4=CC(O)=C(O)C=C4CC3)C=C2C=C1.[Cl-]

>  <Solvent>
DMSO Solution

>  <Batch No.>
267733

>  <Quantity>
2mM  * 50uL

>  <Pathway>
Epigenetics; NF-¦ÊB; PI3K/Akt/mTOR

>  <Synonyms>


>  <Formula>
C19H18ClNO4

>  <Research_Area>
Cancer; Infection; Metabolic Disease; Inflammation/Immunology

>  <Clinical_Information>
No Development Reported

>  <SUPPLIER>
MedChemExpress

$$$$
Untitled Document
  ChemDraw07161916442D

  1  0  0  0  0  0  0  0  0  0999 V2000
    0.0000    0.0000    0.0000 C   0  0  0  0  0  0  0  0  0  0  0  0
A    1
Gardenia yellow
M  END

>  <RackCode>
HYCPK72338

>  <Cat. No.>
HY-N6675

>  <Product Name>
Gardenia yellow

>  <ROW>
A

>  <COLUMN>
3

>  <CAS No.>
94238-00-3

>  <MWt>
N/A

>  <Target>
Sirtuin

>  <Saltdate>


>  <Smiles>
[Gardenia yellow]

>  <Solvent>
DMSO Solution

>  <Batch No.>
67757

>  <Quantity>
3mg/mL  * 50uL

>  <Pathway>
Cell Cycle/DNA Damage; Epigenetics

>  <Synonyms>


>  <Formula>
N/A

>  <Research_Area>
Neurological Disease; Cancer

>  <Clinical_Information>
No Development Reported

>  <SUPPLIER>
MedChemExpress

$$$$
