NCI_AOD5_2014
  SciTegic11012412592D

 42 48  0  0  1  0            999 V2000
    2.6018   -5.9994    0.0000 C   0  0
    3.9008   -5.2492    0.0000 O   0  0
    3.9014   -3.7484    0.0000 C   0  0
    2.6012   -3.0004    0.0000 C   0  0
    2.5987   -1.5004    0.0000 C   0  0
    3.8967   -0.7484    0.0000 C   0  0
    5.1969   -1.4963    0.0000 C   0  0
    6.4939   -0.7411    0.0000 O   0  0
    6.4894    0.7589    0.0000 C   0  0
    5.1993   -2.9963    0.0000 C   0  0
    6.4995   -3.7442    0.0000 O   0  0
    1.2990   -0.7500    0.0000 C   0  0  1  0  0  0
    1.2990    0.7500    0.0000 C   0  0  2  0  0  0
    0.0000    1.5000    0.0000 C   0  0  2  0  0  0
    0.3114    2.9665    0.0000 C   0  0
    1.8032    3.1233    0.0000 O   0  0
    2.4133    1.7530    0.0000 C   0  0
    3.8805    1.4410    0.0000 O   0  0
   -1.2990    0.7500    0.0000 C   0  0  2  0  0  0
   -2.5973    1.5031    0.0000 O   0  0
   -2.5951    3.0039    0.0000 C   0  0
   -1.2935    3.7495    0.0000 O   0  0
   -1.2883    5.2495    0.0000 C   0  0
    0.0133    5.9950    0.0000 C   0  0
    0.0185    7.4950    0.0000 O   0  0
   -1.2780    8.2495    0.0000 C   0  0
   -1.2728    9.7495    0.0000 C   0  0
   -2.5796    7.5040    0.0000 O   0  0
   -2.5848    6.0040    0.0000 C   0  0
   -3.8864    5.2585    0.0000 C   0  0
   -5.1828    6.0129    0.0000 O   0  0
   -3.8915    3.7585    0.0000 C   0  0
   -5.1932    3.0130    0.0000 O   0  0
   -1.2990   -0.7500    0.0000 C   0  0
   -2.5981   -1.5000    0.0000 C   0  0
   -2.5981   -3.0000    0.0000 C   0  0
   -3.7124   -4.0030    0.0000 O   0  0
   -3.1022   -5.3733    0.0000 C   0  0
   -1.6105   -5.2165    0.0000 O   0  0
   -1.2990   -3.7500    0.0000 C   0  0
    0.0000   -3.0000    0.0000 C   0  0
    0.0000   -1.5000    0.0000 C   0  0
  1  2  1  0
  2  3  1  0
  3  4  2  0
  4  5  1  0
  5  6  2  0
  6  7  1  0
  7  8  1  0
  8  9  1  0
  7 10  2  0
 10  3  1  0
 10 11  1  0
 12  5  1  6
 12 13  1  0
 13 14  1  0
 14 15  1  1
 15 16  1  0
 16 17  1  0
 13 17  1  6
 17 18  2  0
 14 19  1  0
 19 20  1  1
 20 21  1  0
 21 22  1  0
 22 23  1  0
 23 24  1  0
 24 25  1  0
 25 26  1  0
 26 27  1  0
 26 28  1  0
 28 29  1  0
 29 23  1  0
 29 30  1  0
 30 31  1  0
 30 32  1  0
 32 21  1  0
 32 33  1  0
 19 34  1  0
 34 35  2  0
 35 36  1  0
 36 37  1  0
 37 38  1  0
 38 39  1  0
 39 40  1  0
 40 36  2  0
 40 41  1  0
 41 42  2  0
 42 12  1  0
 42 34  1  0
M  END
> <name>
NCI_AOD5_2014

> <id>
2553

> <plate>
NCI_V5_A

> <well>
A02

> <supplier_cmpd_name>
Etoposide

> <ctcr_id>
4351

> <supplier_cmpd_id>
141540

> <smiles>
COc1cc(cc(OC)c1O)[C@H]2[C@@H]3[C@H](COC3=O)[C@H](OC4OC5COC(C)OC5C(O)C4O)c6cc7OCOc7cc26

> <pd_targets>
{TOP2A,ALOX15,TOP2B,SLCO1B3,NCOA1,LMP1,NCOA3,BLM,LMNA,GAA,RECQL,PMP22,POLB,GMNN,APEX1,NPSR1,NFO,MTOR,KMT2A,MEN1,RORC}

> <pathway_gtopdb>
{Enzyme,Transporter,"Epigenetic regulator","Unclassified protein","Other nuclear protein","Membrane receptor","Transcription factor",Isomerase,Oxidoreductase,"Electrochemical transporter",Writer,Hydro
lase,"Family A G protein-coupled receptor",Kinase,Reader,"Nuclear receptor","SLC superfamily of solute carriers","Histone acetyltransferase","Peptide receptor (family A GPCR)","Protein Kinase",Bromodo
main,"Nuclear hormone receptor subfamily 1","SLC21/SLCO family of organic anion transporting polypeptides","SRC family","Short peptide receptor (family A GPCR)","Atypical protein kinase group","Nuclea
r hormone receptor subfamily 1 group F","Neuropeptide receptor","Atypical protein kinase PIKK family","Nuclear hormone receptor subfamily 1 group F member 3","Atypical protein kinase FRAP subfamily"}

> <pathway_chembl>
{Enzymes,Transporters,Receptors,"DNA topoisomerases","Eicosanoid turnover","SLC superfamily of solute carriers","Chromatin modifying enzymes","3.2.1.- Glycosidases","G protein-coupled receptors","Kina
ses (EC 2.7.x.x)","Nuclear hormone receptors",Lipoxygenases,"SLCO family of organic anion transporting polypeptides","2.3.1.48 Histone acetyltransferases (HATs)","Neuropeptide S receptor",Atypical,"1F
. Retinoic acid-related orphans","Phosphatidyl inositol 3' kinase-related kinases (PIKK) family","FRAP subfamily"}

> <pathway_reactome>
{"Cell Cycle",Metabolism,"Metabolism of proteins","DNA Repair",Disease,"Developmental Biology","Gene expression (Transcription)",Mitotic,"Metabolism of lipids","Post-translational protein modification
","DNA Double-Strand Break Repair","Diseases of metabolism","Nervous system development","Base Excision Repair","Infectious disease","RNA Polymerase II Transcription","Mitotic G1 phase and G1/S transi
tion","Biosynthesis of specialized proresolving mediators (SPMs)",SUMOylation,"Metabolism of steroids","Regulation of lipid metabolism by PPARalpha","Homology Directed Repair","M Phase","Diseases of c
arbohydrate metabolism","EGR2 and SOX10-mediated initiation of Schwann cell myelination","Resolution of Abasic Sites (AP sites)","Leishmania infection","Generic Transcription Pathway","G0 and Early G1
","Biosynthesis of DPA-derived SPMs","SUMO E3 ligases SUMOylate target proteins","Bile acid and bile salt metabolism","PPARA activates gene expression","HDR through Homologous Recombination (HRR) or S
ingle Strand Annealing (SSA)","Mitotic Metaphase and Anaphase","Glycogen storage diseases","Resolution of AP sites via the multiple-nucleotide patch replacement pathway","G1/S Transition","Leishmania 
parasite growth and survival","Transcriptional Regulation by TP53","Transcriptional regulation by RUNX3","Transcription of E2F targets under negative control by DREAM complex","Biosynthesis of DPAn-3 
SPMs","SUMOylation of DNA replication proteins","Recycling of bile acids and salts","Synthesis of bile acids and bile salts","HDR through Homologous Recombination (HRR)","Mitotic Anaphase","Glycogen s
torage disease type II (GAA)","PCNA-Dependent Long Patch Base Excision Repair","Activation of the pre-replicative complex","Anti-inflammatory response favouring Leishmania parasite infection","Regulat
ion of TP53 Activity","RUNX3 Regulates Immune Response and Cell Migration","Biosynthesis of DPAn-3-derived protectins and resolvins","Synthesis of bile acids and bile salts via 27-hydroxycholesterol",
"Homologous DNA Pairing and Strand Exchange","Nuclear Envelope (NE) Reassembly","ADORA2B mediated anti-inflammatory cytokines production","Regulation of TP53 Expression and Degradation","Presynaptic p
hase of homologous DNA pairing and strand exchange","Initiation of Nuclear Envelope (NE) Reformation","Regulation of TP53 Degradation"}

> <broad_targets>
{TOP2A,TOP2B}

> <broad_moa>
{"topoisomerase inhibitor"}

> <synonyms>
{"Vepesid J","Epipodophyllotoxin VP-16213","Epipodophyllotoxin VP16213",VP-16,VP16,NSC141540,"Etopophos (Bristol Meyers)","4'-Demethylepipodophyllotoxin ethylidene-.beta.-D-glucoside","4'Demethylepipo
dophyllotoxin ethylidene.beta.Dglucoside",BSPBio_001067,BSPBio001067,BSPBio-001067,"BSPBio 001067",KBioGR_000407,KBioGR000407,KBioGR-000407,"KBioGR 000407",KBioSS_000407,KBioSS000407,KBioSS-000407,"KB
ioSS 000407",CHEMBL16671,SCHEMBL5020107,BCBcMAP01_000114,BCBcMAP01000114,BCBcMAP01-000114,"BCBcMAP01 000114",KBio2_0004,KBio20004,KBio2-0004,"KBio2 0004",141540,"NSC 141540",Etoposide}

> <pdid>
PD001532

> <targets>
{}

> <classes>
{"Topoisomerase II Inhibitors"}

> <pubchem_cids>
{439525}

$$$$
NCI_AOD5_2014
  SciTegic11012412592D

 40 43  0  0  1  0            999 V2000
    6.3990   -6.3774    0.0000 Cl  0  0
    3.8983   -0.7459    0.0000 C   0  0
    2.6003   -1.4977    0.0000 O   0  0
    1.2990   -0.7500    0.0000 C   0  0
    1.2990    0.7500    0.0000 C   0  0
    0.0000    1.5000    0.0000 C   0  0
   -1.2990    0.7500    0.0000 C   0  0
   -1.2990   -0.7500    0.0000 C   0  0
   -2.5981   -1.5000    0.0000 C   0  0
   -3.8971   -0.7500    0.0000 O   0  0
   -2.5981   -3.0000    0.0000 C   0  0
   -3.8971   -3.7500    0.0000 C   0  0
   -5.1961   -3.0000    0.0000 O   0  0
   -3.8971   -5.2500    0.0000 C   0  0
   -5.1961   -6.0000    0.0000 C   0  0
   -5.1961   -7.5000    0.0000 C   0  0  2  0  0  0
   -6.4764   -6.7185    0.0000 O   0  0
   -3.8971   -8.2500    0.0000 C   0  0
   -2.5980   -7.5000    0.0000 C   0  0  2  0  0  0
   -1.2998   -8.2531    0.0000 O   0  0
   -1.3019   -9.7539    0.0000 C   0  0  1  0  0  0
   -0.0055  -10.5085    0.0000 C   0  0
   -0.0107  -12.0085    0.0000 C   0  0  2  0  0  0
    1.2858  -12.7630    0.0000 N   0  0
   -1.3123  -12.7540    0.0000 C   0  0  1  0  0  0
   -1.3175  -14.2540    0.0000 O   0  0
   -2.6087  -11.9995    0.0000 C   0  0  2  0  0  0
   -3.9104  -12.7450    0.0000 C   0  0
   -2.6036  -10.4995    0.0000 O   0  0
   -2.5980   -6.0000    0.0000 C   0  0
   -1.2990   -5.2500    0.0000 C   0  0
    0.0000   -6.0000    0.0000 O   0  0
   -1.2990   -3.7500    0.0000 C   0  0
    0.0000   -3.0000    0.0000 C   0  0
    1.2991   -3.7500    0.0000 O   0  0
    0.0000   -1.5000    0.0000 C   0  0
   -5.1596   -8.9800    0.0000 C   0  0
   -6.4587   -9.7299    0.0000 O   0  0
   -3.8602   -9.7310    0.0000 C   0  0
   -3.8599  -11.2310    0.0000 O   0  0
  2  3  1  0
  3  4  1  0
  4  5  2  0
  5  6  1  0
  6  7  2  0
  7  8  1  0
  8  9  1  0
  9 10  2  0
  9 11  1  0
 11 12  2  0
 12 13  1  0
 12 14  1  0
 14 15  1  0
 15 16  1  0
 16 17  1  1
 16 18  1  0
 18 19  1  0
 19 20  1  1
 21 20  1  1
 21 22  1  0
 22 23  1  0
 23 24  1  6
 23 25  1  0
 25 26  1  1
 25 27  1  0
 27 28  1  6
 27 29  1  0
 29 21  1  0
 19 30  1  0
 30 14  2  0
 30 31  1  0
 31 32  1  0
 31 33  2  0
 33 11  1  0
 33 34  1  0
 34 35  2  0
 34 36  1  0
 36  4  1  0
 36  8  2  0
 16 37  1  0
 37 38  2  0
 37 39  1  0
 39 40  1  0
M  END
> <name>
NCI_AOD5_2014

> <id>
2554

> <plate>
NCI_V5_A

> <well>
A03

> <supplier_cmpd_name>
Epirubicin hydrochloride

> <ctcr_id>
1004

> <supplier_cmpd_id>
Epirubicin hydrochloride

> <smiles>
Cl.COc1cccc2C(=O)c3c(O)c4C[C@](O)(C[C@H](O[C@H]5C[C@H](N)[C@@H](O)[C@H](C)O5)c4c(O)c3C(=O)c12)C(=O)CO

> <pd_targets>
.

> <pathway_gtopdb>
.

> <pathway_chembl>
.

> <pathway_reactome>
.

> <broad_targets>
.

> <broad_moa>
.

> <synonyms>
{"Epirubicin hydrochloride",139294-EP2270008A1,139294EP2270008A1,139294-EP2292617A1,139294EP2292617A1,Pharmorubicin,Ellence,56390-09-1,56390091,"Epirubicin HCl",Farmorubicin,"Epirubicin Ebewe","epirub
icin (hydrochloride)",IMI-28,IMI28,UNII-22966TX7J5,UNII22966TX7J5,MLS001401404,"NSC 256942",Pidorubicin,22966,256942,SAM001246559,1505708,CPD000466308,"EPIRUBICIN HYDROCHLORIDE"}

> <pdid>
PD000383

> <targets>
{}

> <classes>
{"topoisomerase II inhibitor",antineoplastic}

> <pubchem_cids>
{53630345,65348}

$$$$
NCI_AOD5_2014
  SciTegic11012412592D

 22 22  0  0  0  0            999 V2000
    2.5981   -1.5000    0.0000 C   0  0
    1.2990   -0.7500    0.0000 C   0  0
    1.2990    0.7500    0.0000 C   0  0
    2.6003    1.4978    0.0000 C   0  0
    3.8990    0.7455    0.0000 C   0  0
    5.2003    1.4932    0.0000 C   0  0
    5.2029    2.9932    0.0000 C   0  0
    6.4990    0.7410    0.0000 C   0  0
    7.8003    1.4887    0.0000 C   0  0
    9.0990    0.7365    0.0000 C   0  0
   10.4003    1.4842    0.0000 C   0  0
   10.4029    2.9842    0.0000 C   0  0
   11.6989    0.7320    0.0000 C   0  0
   13.0002    1.4797    0.0000 C   0  0
   13.0028    2.9797    0.0000 O   0  0
   14.2982    0.7279    0.0000 O   0  0
    0.0000    1.5000    0.0000 C   0  0
    1.3164    2.2191    0.0000 C   0  0
   -1.3163    2.2193    0.0000 C   0  0
   -1.2990    0.7500    0.0000 C   0  0
   -1.2990   -0.7500    0.0000 C   0  0
    0.0000   -1.5000    0.0000 C   0  0
  1  2  1  0
  2  3  2  3
  3  4  1  0
  4  5  2  0
  5  6  1  0
  6  7  1  0
  6  8  2  0
  8  9  1  0
  9 10  2  0
 10 11  1  0
 11 12  1  0
 11 13  2  0
 13 14  1  0
 14 15  1  0
 14 16  2  0
  3 17  1  0
 17 18  1  0
 17 19  1  0
 17 20  1  0
 20 21  1  0
 21 22  1  0
 22  2  1  0
M  END
> <name>
NCI_AOD5_2014

> <id>
2555

> <plate>
NCI_V5_A

> <well>
A04

> <supplier_cmpd_name>
Tretinoin

> <ctcr_id>
4916

> <supplier_cmpd_id>
122758

> <smiles>
CC1=C(\C=C\C(C)=C\C=C\C(C)=C\C(O)=O)C(C)(C)CCC1

> <pd_targets>
{RARB,RARG,PPARD,NR2E1,RARA,RXRA,RXRB,FFP,RXRG,ALDH1A1,TGR,RORC,CYP3A4,CRABP1,RORB,PIN1,S1PR1,CRABP2,GROES,GROL,HIF1A,KDM4E,FTL,MAPT,MAPK1,RORA,TST,DUSP1,GMNN,NR2C2,KMT2A,MEN1,HSPD1,HSPE1,BLM,RECQL,AD
ORA3,HTR2B,IDO2,RARRES1,THRB,ABCB11,MAPK14,PMP22,ADRA2B,MTOR,OR51E2,NR1H2,NR1H3,NR4A1,VKORC1}

> <pathway_gtopdb>
{"Transcription factor",Enzyme,"Auxiliary transport protein","Membrane receptor","Unclassified protein","Epigenetic regulator","Other cytosolic protein","Nuclear receptor",Transferase,Oxidoreductase,"
Cytochrome P450","Fatty acid binding protein family",Isomerase,"Family A G protein-coupled receptor",Eraser,Protease,Kinase,Phosphatase,Reader,"Nuclear hormone receptor subfamily 1","Nuclear hormone r
eceptor subfamily 2","Cytochrome P450 family 3","Small molecule receptor (family A GPCR)","Lysine demethylase","Cysteine protease","Protein Kinase","Protein Phosphatase",Bromodomain,"Nuclear hormone r
eceptor subfamily 1 group B","Nuclear hormone receptor subfamily 1 group C","Nuclear hormone receptor subfamily 2 group E","Nuclear hormone receptor subfamily 2 group B","Nuclear hormone receptor subf
amily 1 group F","Cytochrome P450 family 3A","Lipid-like ligand receptor (family A GPCR)","Jumonji domain-containing","Cysteine protease CA clan","CMGC protein kinase group","Serine/threonine/tyrosine
 protein phosphatase","Nuclear hormone receptor subfamily 2 group C","Nucleotide-like receptor (family A GPCR)","Monoamine receptor","Nuclear hormone receptor subfamily 1 group B member 2","Nuclear ho
rmone receptor subfamily 1 group B member 3","Nuclear hormone receptor subfamily 1 group C member 2","Nuclear hormone receptor subfamily 2 group E member 1","Nuclear hormone receptor subfamily 1 group
 B member 1","Nuclear hormone receptor subfamily 2 group B member 1","Nuclear hormone receptor subfamily 2 group B member 2","Nuclear hormone receptor subfamily 2 group B member 3","Nuclear hormone re
ceptor subfamily 1 group F member 3","Cytochrome P450 3A4","EDG receptor","Cysteine protease C1A family","CMGC protein kinase MAPK family","Nuclear hormone receptor subfamily 1 group F member 1","Nucl
ear hormone receptor subfamily 2 group C member 2","Adenosine receptor","Serotonin receptor","CMGC protein kinase ERK1",Transporter,"Primary active transporter","ATP-binding cassette","Nuclear hormone
 receptor subfamily 1 group A","ABCB subfamily","Atypical protein kinase group","Nuclear hormone receptor subfamily 1 group A member 2","Adrenergic receptor","Atypical protein kinase PIKK family","CMG
C protein kinase p38 subfamily","Atypical protein kinase FRAP subfamily","Nuclear hormone receptor subfamily 4","Nuclear hormone receptor subfamily 1 group H","Nuclear hormone receptor subfamily 4 gro
up A","Nuclear hormone receptor subfamily 1 group H member 3","Nuclear hormone receptor subfamily 4 group A member 1"}

> <pathway_chembl>
{Receptors,Enzymes,"Other protein targets","Nuclear hormone receptors","Cytochrome P450","Fatty acid-binding proteins","Peptidyl-prolyl cis/trans isomerases","G protein-coupled receptors","Chromatin m
odifying enzymes","Kinases (EC 2.7.x.x)","1.13.11.- Dioxygenases","1B. Retinoic acid receptors","1C. Peroxisome proliferator-activated receptors","2E. Tailless-like receptors","2B. Retinoid X receptor
s","1F. Retinoic acid-related orphans","CYP3 family","Lysophospholipid (S1P) receptors","1.14.11.- Histone demethylases","CMGC: Containing CDK",MAPK,GSK3,"CLK families","2C. Testicular receptors","Ade
nosine receptors","5-Hydroxytryptamine receptors","Mitogen-activated protein kinases (MAP kinases)","ERK subfamily",Transporters,"ATP-binding cassette transporter family","1A. Thyroid hormone receptor
s","ABCB subfamily",Adrenoceptors,Atypical,"Phosphatidyl inositol 3' kinase-related kinases (PIKK) family","p38 subfamily","FRAP subfamily","1.-.-.- Oxidoreductases","1H. Liver X receptor-like recepto
rs","4A. Nerve growth factor IB-like receptors"}

> <pathway_reactome>
{"Gene expression (Transcription)",Metabolism,"Signal Transduction","Metabolism of proteins","Cellular responses to external stimuli","Vesicle-mediated transport","Neuronal System","Immune System","Ce
ll Cycle","DNA Repair","RNA Polymerase II Transcription","The citric acid (TCA) cycle and respiratory electron transport","Intracellular signaling by second messengers","Post-translational protein mod
ification","Metabolism of lipids","Biological oxidations","Signaling by Nuclear Receptors","Signaling by GPCR","Cellular responses to stress","Membrane Trafficking","Transmission across Chemical Synap
ses","Innate Immune System","Metabolism of amino acids and derivatives","MAPK family signaling cascades",Mitotic,"DNA Double-Strand Break Repair","Generic Transcription Pathway","Pyruvate metabolism a
nd Citric Acid (TCA) cycle","PIP3 activates AKT signaling",SUMOylation,"Metabolism of steroids","Phase I - Functionalization of compounds","Biosynthesis of specialized proresolving mediators (SPMs)","
Signaling by Retinoic Acid","GPCR ligand binding","Cellular response to hypoxia","trans-Golgi Network Vesicle Budding","Neurotransmitter receptors and postsynaptic signal transmission","Toll-like Rece
ptor Cascades","Sulfur amino acid metabolism","MAPK1/MAPK3 signaling","Mitotic G1 phase and G1/S transition","Homology Directed Repair","Tryptophan catabolism","Nuclear Receptor transcription pathway"
,"Pyruvate metabolism","PTEN Regulation","SUMO E3 ligases SUMOylate target proteins","Bile acid and bile salt metabolism","Ethanol oxidation","Transcriptional regulation by RUNX3","Biosynthesis of DHA
-derived SPMs","RA biosynthesis pathway","Transcriptional Regulation by TP53","Class A/1 (Rhodopsin-like receptors)","Oxygen-dependent proline hydroxylation of Hypoxia-inducible Factor Alpha","Golgi A
ssociated Vesicle Biogenesis","Activation of NMDA receptors and postsynaptic events","Toll Like Receptor 5 (TLR5) Cascade","Degradation of cysteine and homocysteine","RAF/MAP kinase cascade","G1/S Tra
nsition","HDR through Homologous Recombination (HRR) or Single Strand Annealing (SSA)","Regulation of pyruvate dehydrogenase (PDH) complex","Regulation of PTEN gene transcription","SUMOylation of intr
acellular receptors","Synthesis of bile acids and bile salts","RUNX3 Regulates Immune Response and Cell Migration","Biosynthesis of maresins","Regulation of TP53 Activity","Lysosphingolipid and LPA re
ceptors","Post NMDA receptor activation events","MyD88 cascade initiated on plasma membrane","Sulfide oxidation to sulfate","Negative regulation of MAPK pathway","Activation of the pre-replicative com
plex","HDR through Homologous Recombination (HRR)","Nucleotide-like (purinergic) receptors","Amine ligand-binding receptors","Synthesis of bile acids and bile salts via 27-hydroxycholesterol","Biosynt
hesis of maresin-like SPMs","Regulation of TP53 Activity through Acetylation","Activation of AMPK downstream of NMDARs","MAP kinase activation","Homologous DNA Pairing and Strand Exchange","Adenosine 
P1 receptors","Serotonin receptors","PI5P Regulates TP53 Acetylation","MAPK targets/ Nuclear events mediated by MAP kinases","Presynaptic phase of homologous DNA pairing and strand exchange","ERK/MAPK
 targets","ERKs are inactivated","Developmental Biology","Nervous system development","EGR2 and SOX10-mediated initiation of Schwann cell myelination","GPCR downstream signalling","G alpha (s) signall
ing events","Olfactory Signaling Pathway","Synthesis of bile acids and bile salts via 7alpha-hydroxycholesterol",Adrenoceptors,"Regulation of TP53 Expression and Degradation","Regulation of TP53 Degra
dation","Activation of the AP-1 family of transcription factors",Disease,"Diseases of signal transduction by growth factor receptors and second messengers","Metabolism of vitamins and cofactors","PI3K
/AKT Signaling in Cancer","Metabolism of fat-soluble vitamins","Constitutive Signaling by AKT1 E17K in Cancer","Metabolism of vitamin K"}

> <broad_targets>
{ALDH1A1,ALDH1A2,GPRC5A,NR0B1,NR2C2,PPARD,RARA,RARB,RARG,RARRES1,RORB,RORC,RXRB,RXRG}

> <broad_moa>
{"retinoid receptor agonist","retinoid receptor ligand"}

> <synonyms>
{"Retinoic acid",tretinoin,302-79-4,302794,"Vitamin A acid","all-trans-Retinoic acid","alltransRetinoic acid","trans-Retinoic acid","transRetinoic acid",ATRA,Airol,Retin-A,RetinA,Vesanoid,Renova,"All-
trans Retinoic Acid","Alltrans Retinoic Acid","all-trans-Vitamin A acid","alltransVitamin A acid",Dermairol,Aknoten,Aberel,Eudyna,Aknefug,"Cordes vas",Epi-a,Epia,122758,R2625,SAM002264647,1502016,Pres
tw-257,"NSC 122758",Tretinoin,CPD000058245,TRETINON}

> <pdid>
PD001430

> <targets>
{Autophagy,Endogenous Metabolite,PPAR,RAR/RXR}

> <classes>
{Retinoid,keratolytic,Autophagy,Cell Cycle/DNA Damage,Metabolic Enzyme/Protease}

> <pubchem_cids>
{444795}

$$$$
NCI_AOD5_2014
  SciTegic11012412592D

 33 36  0  0  0  0            999 V2000
    7.0503  -11.0244    0.0000 C   0  0
    5.5827  -10.7143    0.0000 C   0  0
    5.1163   -9.2878    0.0000 C   0  0
    3.6479   -8.9775    0.0000 S   0  0
    2.6459  -10.0938    0.0000 O   0  0
    4.1134  -10.4035    0.0000 O   0  0
    3.1815   -7.5510    0.0000 N   0  0
    1.7131   -7.2408    0.0000 C   0  0
    0.7130   -8.3588    0.0000 C   0  0
   -0.7552   -8.0517    0.0000 C   0  0
   -1.2234   -6.6267    0.0000 C   0  0
   -2.6917   -6.3197    0.0000 F   0  0
   -0.2234   -5.5086    0.0000 C   0  0
   -0.6890   -4.0818    0.0000 C   0  0
   -2.1567   -3.7722    0.0000 O   0  0
    0.3114   -2.9665    0.0000 C   0  0
    1.8032   -3.1233    0.0000 C   0  0
    2.4133   -1.7530    0.0000 N   0  0
    1.2990   -0.7500    0.0000 C   0  0
    1.2990    0.7500    0.0000 N   0  0
    0.0000    1.5000    0.0000 C   0  0
   -1.2990    0.7500    0.0000 C   0  0
   -1.2990   -0.7500    0.0000 C   0  0
    0.0000   -1.5000    0.0000 C   0  0
   -2.5987    1.5004    0.0000 C   0  0
   -2.6012    3.0004    0.0000 C   0  0
   -3.9015    3.7484    0.0000 C   0  0
   -5.1993    2.9963    0.0000 C   0  0
   -6.4995    3.7442    0.0000 Cl  0  0
   -5.1969    1.4963    0.0000 C   0  0
   -3.8967    0.7484    0.0000 C   0  0
    1.2449   -5.8157    0.0000 C   0  0
    2.2449   -4.6977    0.0000 F   0  0
  1  2  1  0
  2  3  1  0
  3  4  1  0
  4  5  2  0
  4  6  2  0
  4  7  1  0
  7  8  1  0
  8  9  2  0
  9 10  1  0
 10 11  2  0
 11 12  1  0
 11 13  1  0
 13 14  1  0
 14 15  2  0
 14 16  1  0
 16 17  2  0
 17 18  1  0
 18 19  1  0
 19 20  2  0
 20 21  1  0
 21 22  2  0
 22 23  1  0
 23 24  2  0
 24 16  1  0
 24 19  1  0
 22 25  1  0
 25 26  2  0
 26 27  1  0
 27 28  2  0
 28 29  1  0
 28 30  1  0
 30 31  2  0
 31 25  1  0
 13 32  2  0
 32  8  1  0
 32 33  1  0
M  END
> <name>
NCI_AOD5_2014

> <id>
2556

> <plate>
NCI_V5_A

> <well>
A05

> <supplier_cmpd_name>
Vemurafenib

> <ctcr_id>
503

> <supplier_cmpd_id>
761431

> <smiles>
CCCS(=O)(=O)Nc1ccc(F)c(C(=O)c2c[nH]c3ncc(cc23)c4ccc(Cl)cc4)c1F

> <pd_targets>
{BRAF,MAP2K1,MAP2K2,ARAF,CHRM1,RAF1,KDR,CHRM3,MAP3K20,CHRM2,FECH,KRAS}

> <pathway_gtopdb>
{Enzyme,"Membrane receptor","Unclassified protein",Kinase,"Family A G protein-coupled receptor","Protein Kinase","Small molecule receptor (family A GPCR)","TKL protein kinase group","STE protein kinas
e group","Monoamine receptor","TK protein kinase group","TKL protein kinase RAF family","STE protein kinase STE7 family","Acetylcholine receptor","Tyrosine protein kinase VEGFR family","TKL protein ki
nase MLK family","TKL protein kinase MLK subfamily"}

> <pathway_chembl>
{Receptors,Enzymes,"Catalytic receptors","G protein-coupled receptors","3.6.5.2 Small monomeric GTPases","Receptor kinases","Acetylcholine receptors (muscarinic)","RAS subfamily","TKL: Tyrosine kinase
-like","TK: Tyrosine kinase","RAF family","Receptor tyrosine kinases (RTKs)","Mixed Lineage Kinase (MLK) family","Type IV RTKs: VEGF (vascular endothelial growth factor) receptor family","MLK subfamil
y"}

> <pathway_reactome>
{"Signal Transduction",Disease,Metabolism,"Neuronal System","Signaling by Receptor Tyrosine Kinases","Diseases of signal transduction by growth factor receptors and second messengers","Signaling by GP
CR","MAPK family signaling cascades","Metabolism of porphyrins","Transmission across Chemical Synapses","Signaling by NTRKs","Oncogenic MAPK signaling","GPCR ligand binding","MAPK1/MAPK3 signaling","S
ignaling by VEGF","Heme biosynthesis","Neurotransmitter receptors and postsynaptic signal transmission","Signaling by NTRK1 (TRKA)","Signaling by RAS mutants","Class A/1 (Rhodopsin-like receptors)","R
AF/MAP kinase cascade","VEGFA-VEGFR2 Pathway","Activation of NMDA receptors and postsynaptic events","Signalling to ERKs","Signaling downstream of RAS mutants","Amine ligand-binding receptors","Negati
ve regulation of MAPK pathway","VEGFR2 mediated cell proliferation","Post NMDA receptor activation events","Prolonged ERK activation events","Muscarinic acetylcholine receptors","Negative feedback reg
ulation of MAPK pathway","CREB1 phosphorylation through NMDA receptor-mediated activation of RAS signaling","ARMS-mediated activation","Ras activation upon Ca2+ influx through NMDA receptor"}

> <broad_targets>
{BRAF,RAF1}

> <broad_moa>
{"RAF inhibitor"}

> <synonyms>
{Vemurafenib,918504-65-1,918504651,PLX4032,Zelboraf,1029872-54-5,1029872545,PLX-4032,RG7204,"PLX 4032","RG 7204","Vemurafenib (PLX4032, RG7204)",RO5185426,"RO 5185426",UNII-207SMY3FQT,UNII207SMY3FQT,"
Vemurafenib (PLX4032)",RG-7204,207SMY3FQT,CHEBI:63637,MFCD18074504,NSC761431,Ve,T2382,761431,S1267,"NSC 761431",vemurafenib}

> <pdid>
PD003414

> <targets>
{Raf,"B-RafV600E kinase Inhibitor",Autophagy}

> <classes>
{BRAF inhibitor,Autophagy,MAPK/ERK Pathway}

> <pubchem_cids>
{42611257}

$$$$
NCI_AOD5_2014
  SciTegic11012412592D

 30 33  0  0  0  0            999 V2000
    3.8983   -0.7459    0.0000 C   0  0
    2.6003   -1.4977    0.0000 O   0  0
    1.2990   -0.7500    0.0000 C   0  0
    1.2990    0.7500    0.0000 C   0  0
    0.0000    1.5000    0.0000 C   0  0
    0.0000    3.0000    0.0000 C   0  0
    1.2982    3.7531    0.0000 N   0  0
    1.2960    5.2539    0.0000 C   0  0
   -0.0056    5.9995    0.0000 C   0  0
   -0.0108    7.4995    0.0000 C   0  0
    1.2856    8.2540    0.0000 C   0  0
    1.2804    9.7540    0.0000 Br  0  0
    2.5873    7.5085    0.0000 C   0  0
    2.5924    6.0085    0.0000 C   0  0
    3.8941    5.2631    0.0000 F   0  0
   -1.2991    3.7500    0.0000 N   0  0
   -2.5981    3.0000    0.0000 C   0  0
   -2.5981    1.5000    0.0000 N   0  0
   -1.2990    0.7500    0.0000 C   0  0
   -1.2990   -0.7500    0.0000 C   0  0
    0.0000   -1.5000    0.0000 C   0  0
   -0.0031   -3.0008    0.0000 O   0  0
   -1.3039   -3.7494    0.0000 C   0  0
   -1.3070   -5.2502    0.0000 C   0  0
   -2.6060   -6.0003    0.0000 C   0  0
   -2.6060   -7.5003    0.0000 C   0  0
   -1.3070   -8.2503    0.0000 N   0  0
   -1.3071   -9.7503    0.0000 C   0  0
   -0.0080   -7.5003    0.0000 C   0  0
   -0.0079   -6.0003    0.0000 C   0  0
  1  2  1  0
  2  3  1  0
  3  4  2  0
  4  5  1  0
  5  6  2  0
  6  7  1  0
  7  8  1  0
  8  9  2  0
  9 10  1  0
 10 11  2  0
 11 12  1  0
 11 13  1  0
 13 14  2  0
 14  8  1  0
 14 15  1  0
  6 16  1  0
 16 17  2  0
 17 18  1  0
 18 19  2  0
 19  5  1  0
 19 20  1  0
 20 21  2  0
 21  3  1  0
 21 22  1  0
 22 23  1  0
 23 24  1  0
 24 25  1  0
 25 26  1  0
 26 27  1  0
 27 28  1  0
 27 29  1  0
 29 30  1  0
 30 24  1  0
M  END
> <name>
NCI_AOD5_2014

> <id>
2557

> <plate>
NCI_V5_A

> <well>
A06

> <supplier_cmpd_name>
Vandetanib

> <ctcr_id>
4018

> <supplier_cmpd_id>
760766

> <smiles>
COc1cc2c(Nc3ccc(Br)cc3F)ncnc2cc1OCC4CCN(C)CC4

> <pd_targets>
{FGFR1,FLT1,EGFR,KDR,TEK,PDGFRB,MAP2K1,MAP2K2,SIK2,ALK,ACVRL1,LTK,MAP4K2,FYN,CSK,DDR2,EPHA4,FGFR2,EPHA2,EPHB1,HCK,TNIK,YES1,ERBB2,CDC42BPA,CDC42BPB,RIPK2,SRC,STK32A,PLK4,COQ8A,COQ8B,ACVR1,HUNK,RIPK4,C
SNK1E,FLT3,MAP3K19,TXK,AURKC,SRMS,TESK1,RPS6KA1,KIT,CSF1R,ABL1,IRAK1,FRK,EPHB4,MKNK2,MAP4K5,EPHA6,MAP4K3,AURKB,BLK,MAP4K4,MERTK,AXL,EPHA7,FLT4,MET,LCK,BTK,ULK3,ERBB3,RET,STK10,EPHB6,DDR1,GAK,PHKG2,PHK
G1,FGFR3,MAP3K20,MAPK6,EPHA3,MAPK14,ROCK2,PTK6,LYN,EPHB2,EPHA1,TYRO3,MAP3K4,MKNK1,TNNI3K,PDGFRA,SIK3,LRRK2,ABL2,EPHA8,EPHA5,ERBB4,IRAK4,STK33,CIT,CDK7,TIE1,PRKAA1,RPS6KA6,SIK1,FGFR4,CDC42BPG,RORC,FGR,
MAP2K5,TUBA1A,MAP4K1,SLK,MINK1,MST1R,BMPR1B,HTT,STK35,RPS6KB1,KIF5B,EPHA10,EPHB3,VEGFA}

> <pathway_gtopdb>
{Enzyme,"Unclassified protein","Transcription factor","Structural protein","Secreted protein",Kinase,"Nuclear receptor","Protein Kinase","Nuclear hormone receptor subfamily 1","TK protein kinase group
","STE protein kinase group","CAMK protein kinase group","TKL protein kinase group","AGC protein kinase group","Other protein kinase group","Atypical protein kinase group","CK1 protein kinase group","
CMGC protein kinase group","Nuclear hormone receptor subfamily 1 group F","Tyrosine protein kinase FGFR family","Tyrosine protein kinase VEGFR family","Tyrosine protein kinase EGFR family","Tyrosine p
rotein kinase Tie family","Tyrosine protein kinase PDGFR family","STE protein kinase STE7 family","CAMK protein kinase CAMK1 family","TKL protein kinase STKR family","Tyrosine protein kinase Alk famil
y","STE protein kinase STE20 family","Tyrosine protein kinase Src family","Tyrosine protein kinase Csk family","Tyrosine protein kinase DDR family","Tyrosine protein kinase Eph family","AGC protein ki
nase DMPK family","TKL protein kinase RIPK family","AGC protein kinase YANK family","Other protein kinase PLK family","Atypical protein kinase ABC1 family","CK1 protein kinase CK1 family","STE protein
 kinase STE11 family","Tyrosine protein kinase Tec family","Other protein kinase AUR family","TKL protein kinase LISK family","AGC protein kinase RSK family","Tyrosine protein kinase Abl family","TKL 
protein kinase IRAK family","CAMK protein kinase MAPKAPK family","Tyrosine protein kinase Axl family","Tyrosine protein kinase Met family","Other protein kinase ULK family","Tyrosine protein kinase Re
t family","Other protein kinase NAK family","CAMK protein kinase PHk family","TKL protein kinase MLK family","CMGC protein kinase MAPK family","TKL protein kinase LRRK family","CAMK protein kinase uni
que family","CMGC protein kinase CDK family","Nuclear hormone receptor subfamily 1 group F member 3","Other protein kinase NKF4 family","CAMK protein kinase QIK subfamily","TKL protein kinase STKR Typ
e 1 subfamily","STE protein kinase KHS subfamily","Tyrosine protein kinase SrcA","STE protein kinase MSN subfamily","AGC protein kinase GEK subfamily","Atypical protein kinase ABC1-A subfamily","TKL p
rotein kinase STKR1","Tyrosine protein kinase Srm","TKL protein kinase TESK subfamily","AGC protein kinase RSK subfamily","CAMK protein kinase MNK subfamily","STE protein kinase SLK subfamily","TKL pr
otein kinase MLK subfamily","CMGC protein kinase ERK3","CMGC protein kinase p38 subfamily","AGC protein kinase ROCK subfamily","TKL protein kinase HH498 subfamily","AGC protein kinase CRIK subfamily",
"CMGC protein kinase CDK7 subfamily","CAMK protein kinase AMPK subfamily","AGC protein kinase p70 subfamily"}

> <pathway_chembl>
{Receptors,Enzymes,"Other protein targets","Catalytic receptors","Kinases (EC 2.7.x.x)","Nuclear hormone receptors",Tubulins,"Receptor kinases","STE: Homologs of yeast Sterile 7","Sterile 11","Sterile
 20 kinases","CAMK: Calcium/calmodulin-dependent protein kinases","AGC: Containing PKA",PKG,"PKC families",Atypical,"CK1: Casein kinase 1","CMGC: Containing CDK",MAPK,GSK3,"CLK families","1F. Retinoic
 acid-related orphans","TK: Tyrosine kinase","STE7 family","CAMK-like (CAMKL) family","TKL: Tyrosine kinase-like","STE20 family","DMPK family","YANK family","Other protein kinases","ABC1 family","Case
in kinase 1 (CK1) family","RSK family","MAPK-Activated Protein Kinase (MAPKAPK) family","Phosphorylase kinase (PHK) family","Mitogen-activated protein kinases (MAP kinases)","STE11 family","CAMK-uniqu
e family","Cyclin-dependent kinase (CDK) family","Receptor tyrosine kinases (RTKs)","QIK subfamily","Receptor serine/threonine kinase (RSTK) family","KHS subfamily","Non-receptor tyrosine kinases (nRT
Ks)","MSN subfamily","GEK subfamily","Receptor interacting protein kinase (RIPK) family","Polo-like kinase (PLK) family","ABC1-B subfamily","HUNK subfamily","STE20 subfamily","Aurora kinase (Aur) fami
ly","LIM domain kinase (LISK) family","RSK subfamily","Interleukin-1 receptor-associated kinase (IRAK) family","MKN subfamily","Unc-51-like kinase (ULK) family","SLK subfamily","Numb-associated kinase
 (NAK) family","Mixed Lineage Kinase (MLK) family","ERK subfamily","p38 subfamily","Rho kinase","Leucine-rich repeat kinase (LRRK) family","Other DMPK family kinases","CDK7 subfamily","AMPK subfamily"
,"NKF4 family","p70 subfamily","Type V RTKs: FGF (fibroblast growth factor) receptor family","Type IV RTKs: VEGF (vascular endothelial growth factor) receptor family","Type I RTKs: ErbB (epidermal gro
wth factor) receptor family","Type XII RTKs: TIE family of angiopoietin receptors","Type III RTKs: PDGFR",CSFR,Kit,"FLT3 receptor family","Type XIX RTKs: Leukocyte tyrosine kinase (LTK) receptor famil
y","Type I receptor serine/threonine kinases","Src family","Csk family","Type XVI RTKs: DDR (collagen receptor) family","Type XIII RTKs: Ephrin receptor family","Tec family","TESK subfamily","Abl fami
ly","Type XI RTKs: TAM (TYRO3-","AXL- and MER-TK) receptor family","Type X RTKs: HGF (hepatocyte growth factor) receptor family","Type XIV RTKs: RET","MLK subfamily","HH498 subfamily"}

> <pathway_reactome>
{Disease,"Signal Transduction","Extracellular matrix organization","Developmental Biology","Cellular responses to external stimuli","Immune System","Cell Cycle","Cell-Cell communication","Gene express
ion (Transcription)",Hemostasis,"Vesicle-mediated transport",Metabolism,"Neuronal System","Circadian Clock","Diseases of signal transduction by growth factor receptors and second messengers","Signalin
g by Receptor Tyrosine Kinases","Signaling by GPCR","MAPK family signaling cascades","Intracellular signaling by second messengers","Signaling by TGFB family members","Infectious disease","Non-integri
n membrane-ECM interactions","Nervous system development","Cellular responses to stress","Innate Immune System",Mitotic,"Signaling by Non-Receptor Tyrosine Kinases","Cell junction organization","RNA P
olymerase II Transcription","Cell surface interactions at the vascular wall","Signaling by Hedgehog","Membrane Trafficking","Metabolism of carbohydrates","Transmission across Chemical Synapses","Signa
ling by Rho GTPases","MTOR signalling","Signaling by FGFR in disease","Signaling by VEGF","GPCR downstream signalling","MAPK1/MAPK3 signaling","PIP3 activates AKT signaling","Signaling by NTRKs","Sign
aling by BMP","HIV Infection","Oncogenic MAPK signaling","Axon guidance","Cellular Senescence","Leishmania infection","Toll-like Receptor Cascades","Mitotic G2-G2/M phases","Signaling by Insulin recep
tor","Fc epsilon receptor (FCERI) signaling","Signaling by PTK6","Cell-extracellular matrix interactions","Signaling by KIT in disease","Generic Transcription Pathway","M Phase","Hedgehog 'on' state",
"Neutrophil degranulation","trans-Golgi Network Vesicle Budding","Glycogen metabolism","MAPK6/MAPK4 signaling","Mitotic G1 phase and G1/S transition","Signaling by FGFR","Signaling by PDGFR in disease
","Neurotransmitter receptors and postsynaptic signal transmission","RHO GTPase Effectors","Signaling by MST1","mTORC1-mediated signalling","Signaling by FGFR1 in disease","VEGF ligand-receptor intera
ctions","G alpha (q) signalling events","VEGFA-VEGFR2 Pathway","RAF/MAP kinase cascade","Negative regulation of the PI3K/AKT network","Signaling by NTRK1 (TRKA)","Host Interactions of HIV factors","Si
gnaling by RAS mutants","EPH-Ephrin signaling","Signaling by FGFR2 in disease","Oxidative Stress Induced Senescence","Leishmania parasite growth and survival","Semaphorin interactions","Toll Like Rece
ptor 5 (TLR5) Cascade","G2/M Transition","Insulin receptor signalling cascade","FCERI mediated Ca+2 mobilization","PTK6 Down-Regulation","Regulation of cytoskeletal remodeling and cell spreading by IP
P complex components","Drug resistance of KIT mutants","Transcriptional Regulation by VENTX","Parasite infection","PTEN Regulation","Mitotic Metaphase and Anaphase","Transcriptional regulation by RUNX
1","RET signaling","Golgi Associated Vesicle Biogenesis","Glycogen breakdown (glycogenolysis)","Signaling by FGFR3 in disease","G1 Phase","Signaling by FGFR4","Drug resistance of PDGFR mutants","PTK6 
promotes HIF1A stabilization","Signaling by ROBO receptors","Activation of NMDA receptors and postsynaptic events","Toll Like Receptor 2 (TLR2) Cascade","RHO GTPases activate CIT","HIV Life Cycle","Tr
anscriptional Regulation by TP53","Transcriptional regulation by RUNX3","Transcriptional Regulation by MECP2","Transcriptional regulation by the AP-2 (TFAP2) family of transcription factors","FGFR1 mu
tant receptor activation","VEGF binds to VEGFR leading to receptor dimerization","Gastrin-CREB signalling pathway via PKC and MAPK","VEGFR2 mediated cell proliferation",PI5P,"PP2A and IER3 Regulate PI
3K/AKT Signaling","Signalling to ERKs","The role of Nef in HIV-1 replication and disease pathogenesis","Signaling downstream of RAS mutants","EPHA-mediated growth cone collapse","FGFR2 mutant receptor
 activation","EPHB-mediated forward signaling","Anti-inflammatory response favouring Leishmania parasite infection","Sema4D in semaphorin signaling","MyD88 cascade initiated on plasma membrane","Centr
osome maturation","IRS-mediated signalling","Dasatinib-resistant KIT mutants","Leishmania phagocytosis","Regulation of PTEN stability and activity","Mitotic Anaphase","RUNX1 regulates transcription of
 genes involved in BCR signaling","Signaling by FGFR3 point mutants in cancer","Cyclin D associated events in G1","Negative regulation of FGFR4 signaling","Imatinib-resistant PDGFR mutants","Role of A
BL in ROBO-SLIT signaling","Post NMDA receptor activation events","Toll Like Receptor TLR6:TLR2 Cascade","Late Phase of HIV Life Cycle","Regulation of TP53 Activity","Downstream signaling of activated
 FGFR4","RUNX3 Regulates Immune Response and Cell Migration","Signalling to ERK5","Regulation of MECP2 expression and activity","TFAP2 (AP-2) family regulates transcription of growth factors and their
 receptors","Signaling by activated point mutants of FGFR1","EGFR Transactivation by Gastrin","Prolonged ERK activation events","Nef and signal transduction","Activated point mutants of FGFR2","FCGR3A
-mediated IL10 synthesis","Sema4D induced cell migration and growth-cone collapse","MAP kinase activation","Signalling to RAS","Loss of proteins required for interphase microtubule organization from t
he centrosome","PI3K Cascade","FCGR3A-mediated phagocytosis","Separation of Sister Chromatids","Sema4D mediated inhibition of cell attachment and migration","Nef-mediates down modulation of cell surfa
ce receptors by recruiting them to clathrin adapters","FGFR3 mutant receptor activation","Spry regulation of FGF signaling","Long-term potentiation","MyD88:MAL(TIRAP) cascade initiated on plasma membr
ane","Transcription of the HIV genome","Regulation of TP53 Activity through Phosphorylation","CREB1 phosphorylation through NMDA receptor-mediated activation of RAS signaling","FRS-mediated FGFR4 sign
aling","Frs2-mediated activation","activated TAK1 mediates p38 MAPK activation","p38MAPK events","Loss of Nlp from mitotic centrosomes","MAPK targets/ Nuclear events mediated by MAP kinases","Nef Medi
ated CD4 Down-regulation","Signaling by activated point mutants of FGFR3","HIV Transcription Elongation","RSK activation","CREB phosphorylation","Activation of the AP-1 family of transcription factors
","Tat-mediated elongation of the HIV-1 transcript","Formation of HIV-1 elongation complex containing HIV-1 Tat"}

> <broad_targets>
{EGFR,EPHA1,EPHA10,EPHA2,EPHA3,EPHA4,EPHA5,EPHA6,EPHA7,EPHA8,EPHB1,EPHB2,EPHB3,EPHB4,EPHB6,ERBB2,ERBB3,ERBB4,FLT1,FLT4,KDR,PTK6,RET,SRC,TEK,VEGFA}

> <broad_moa>
{"EGFR inhibitor","RET tyrosine kinase inhibitor","VEGFR inhibitor"}

> <synonyms>
{Vandetinib,"HSDB 8198",2ivu,Vandetanib,443913-73-3,443913733,Zactima,ZD6474,Caprelsa,"vandetanib (zd6474)","ZD 6474",ZD-6474,UNII-YO460OQ37K,UNIIYO460OQ37K,C22H24BrFN4O2,CHEMBL24828,YO460OQ37K,CHEBI:
49960,GNF-PF-2188,GNFPF2188,MFCD07772346,NCGC00167513-01,NCGC0016751301,DSSTox_CID_26681,DSSToxCID26681,DSSTox-CID-26681,"DSSTox CID 26681",DSSTox,T1656,760766,S1046,"NSC 760766",vandetanib,VANDETANIB
}

> <pdid>
PD003329

> <targets>
{"EGFR(HER) | VEGFR-PDGFR",PDGFR,RET,KIT,VEGFR,FMS}

> <classes>
{"Kinase inhibitor"}

> <pubchem_cids>
{3081361}

$$$$
NCI_AOD5_2014
  SciTegic11012412592D

 26 30  0  0  1  0            999 V2000
    2.5981    0.0000    0.0000 C   0  0
    1.2990   -0.7500    0.0000 C   0  0  2  0  0  0
    1.2990    0.7500    0.0000 C   0  0
    0.0000    1.5000    0.0000 C   0  0
   -1.2990    0.7500    0.0000 C   0  0  2  0  0  0
   -2.5981    1.5000    0.0000 O   0  0
   -1.2990   -0.7500    0.0000 C   0  0
    0.0000   -1.5000    0.0000 C   0  0
    0.0000   -3.0000    0.0000 C   0  0
    1.2990   -3.7500    0.0000 C   0  0
    2.5981   -3.0000    0.0000 C   0  0  2  0  0  0
    2.5981   -1.5000    0.0000 C   0  0  2  0  0  0
    3.8971   -0.7500    0.0000 C   0  0
    5.1962   -1.5000    0.0000 C   0  0
    5.1962   -3.0000    0.0000 C   0  0  1  0  0  0
    6.5611   -2.3779    0.0000 C   0  0
    3.8971   -3.7500    0.0000 C   0  0  1  0  0  0
    4.2297   -5.2071    0.0000 C   0  0
    5.7224   -5.3544    0.0000 C   0  0
    6.3238   -3.9802    0.0000 C   0  0
    7.7879   -3.6507    0.0000 C   0  0
    8.3435   -2.2630    0.0000 C   0  0
    9.8283   -2.0504    0.0000 C   0  0
   10.7548   -3.2301    0.0000 C   0  0
   10.1964   -4.6223    0.0000 N   0  0
    8.7116   -4.8348    0.0000 C   0  0
  2  1  1  1
  2  3  1  0
  3  4  1  0
  4  5  1  0
  5  6  1  1
  5  7  1  0
  7  8  1  0
  8  2  1  0
  8  9  2  3
  9 10  1  0
 11 10  1  6
 11 12  1  0
 12  2  1  0
 12 13  1  1
 13 14  1  0
 14 15  1  0
 15 16  1  1
 15 17  1  0
 17 11  1  0
 17 18  1  1
 18 19  1  0
 19 20  2  3
 20 15  1  0
 20 21  1  0
 21 22  2  0
 22 23  1  0
 23 24  2  0
 24 25  1  0
 25 26  2  0
 26 21  1  0
M  END
> <name>
NCI_AOD5_2014

> <id>
2558

> <plate>
NCI_V5_A

> <well>
A07

> <supplier_cmpd_name>
Abiraterone

> <ctcr_id>
679

> <supplier_cmpd_id>
749226

> <smiles>
C[C@]12CC[C@H](O)CC1=CC[C@@H]3[C@@H]2CC[C@@]4(C)[C@H]3CC=C4c5cccnc5

> <pd_targets>
{CYP17A1,CYP3A4,CYP21A2,CYP11B1,CYP11B2,SRD5A1,SRD5A2,SRD5A3,AR}

> <pathway_gtopdb>
{Enzyme,"Transcription factor","Cytochrome P450",Oxidoreductase,"Nuclear receptor","Cytochrome P450 family 17","Cytochrome P450 family 3","Cytochrome P450 family 21","Cytochrome P450 family 11","Nucle
ar hormone receptor subfamily 3","Cytochrome P450 family 17A","Cytochrome P450 family 3A","Cytochrome P450 family 21A","Cytochrome P450 family 11B","Nuclear hormone receptor subfamily 3 group C","Cyto
chrome P450 17A1","Cytochrome P450 3A4","Cytochrome P450 21A2","Cytochrome P450 11B1","Cytochrome P450 11B2","Nuclear hormone receptor subfamily 3 group C member 4"}

> <pathway_chembl>
{Enzymes,Receptors,"Cytochrome P450","Nuclear hormone receptors",CYP11,CYP17,CYP19,"CYP20 and CYP21 families","CYP3 family","Steroid hormone receptors","3C. 3-Ketosteroid receptors"}

> <pathway_reactome>
{Metabolism,"Gene expression (Transcription)","Metabolism of lipids","Biological oxidations","RNA Polymerase II Transcription","Metabolism of steroids","Biosynthesis of specialized proresolving mediat
ors (SPMs)","Phase I - Functionalization of compounds","Generic Transcription Pathway","Metabolism of steroid hormones","Biosynthesis of DHA-derived SPMs","Cytochrome P450 - arranged by substrate type
","Transcriptional regulation by RUNX2","Androgen biosynthesis","Biosynthesis of maresins","Endogenous sterols","RUNX2 regulates bone development","Biosynthesis of maresin-like SPMs","RUNX2 regulates 
osteoblast differentiation"}

> <broad_targets>
{CYP11B1,CYP17A1}

> <broad_moa>
{"androgen biosynthesis inhibitor"}

> <synonyms>
{Abiraterone,154229-19-3,154229193,"(3beta)-17-(3-pyridinyl)-androsta-5,16-dien-3-ol","(3beta)17(3pyridinyl)androsta5,16dien3ol","CB 7598",CB-7598,CB7598,"17-(3-Pyridyl)androsta-5,16-dien-3beta-ol","1
7(3Pyridyl)androsta5,16dien3betaol","Abiraterone (CB-7598)","Abiraterone (CB7598)",UNII-G819A456D0,UNIIG819A456D0,CHEMBL254328,CHEBI:68642,"154229-19-3 (Abiraterone)","154229193 (Abiraterone)",MFCD00,
T6216,749226,S1123,"NSC 749226",abiraterone}

> <pdid>
PD003444

> <targets>
{Cytochrome P450}

> <classes>
{CYP Inhibitor,Metabolic Enzyme/Protease}

> <pubchem_cids>
{132971}

$$$$
NCI_AOD5_2014
  SciTegic11012412592D

 14 15  0  0  0  0            999 V2000
    2.5981   -1.5000    0.0000 C   0  0
    1.2990   -0.7500    0.0000 N   0  0
    1.2990    0.7500    0.0000 N   0  0
    0.0000    1.5000    0.0000 N   0  0
   -1.2990    0.7500    0.0000 C   0  0
   -1.2990   -0.7500    0.0000 N   0  0
   -2.7248   -1.2135    0.0000 C   0  0
   -3.6065    0.0000    0.0000 N   0  0
   -2.7248    1.2135    0.0000 C   0  0
   -3.1905    2.6376    0.0000 C   0  0
   -2.1885    3.7539    0.0000 N   0  0
   -4.6581    2.9476    0.0000 O   0  0
    0.0000   -1.5000    0.0000 C   0  0
    0.0000   -3.0000    0.0000 O   0  0
  1  2  1  0
  2  3  1  0
  3  4  2  3
  4  5  1  0
  5  6  1  0
  6  7  1  0
  7  8  2  0
  8  9  1  0
  9  5  2  0
  9 10  1  0
 10 11  1  0
 10 12  2  0
  6 13  1  0
 13  2  1  0
 13 14  2  0
M  END
> <name>
NCI_AOD5_2014

> <id>
2559

> <plate>
NCI_V5_A

> <well>
A08

> <supplier_cmpd_name>
Temozolomide

> <ctcr_id>
5602

> <supplier_cmpd_id>
362856

> <smiles>
CN1N=Nc2n(cnc2C(N)=O)C1=O

> <pd_targets>
{KMT2A,MEN1}

> <pathway_gtopdb>
{"Epigenetic regulator",Reader,Bromodomain}

> <pathway_chembl>
{}

> <pathway_reactome>
{}

> <broad_targets>
{MGMT}

> <broad_moa>
{"DNA alkylating agent"}

> <synonyms>
{temozolomide,85622-93-1,85622931,Methazolastone,Temodal,Temodar,Temozolamide,"3-methyl-4-oxo-3,4-dihydroimidazo(5,1-d)(1,2,3,5)tetrazine-8-carboxamide","3methyl4oxo3,4dihydroimidazo(5,1d)(1,2,3,5)tet
razine8carboxamide","Temozolomidum (Latin)","Sch 52365","Temozolodida (Spanish)",Temozolomidum,"CCRG 81045",CCRG-81045,CCRG81045,T1178,362856,S1237,SAM001246636,Prestw-1183,"NSC 362856",Temozolomide,C
PD000466338}

> <pdid>
PD001314

> <targets>
{Apoptosis,Autophagy,DNA Alkylator/Crosslinker}

> <classes>
{Alkylating agent,Apoptosis,Autophagy,Cell Cycle/DNA Damage}

> <pubchem_cids>
{5394}

$$$$
NCI_AOD5_2014
  SciTegic11012412592D

 34 37  0  0  1  0            999 V2000
   10.3996   -1.4837    0.0000 C   0  0
    9.0990   -0.7364    0.0000 N   0  0
    9.0964    0.7636    0.0000 C   0  0
    7.8003   -1.4887    0.0000 C   0  0
    6.4990   -0.7409    0.0000 C   0  0
    5.2003   -1.4932    0.0000 C   0  0
    3.8990   -0.7455    0.0000 C   0  0
    3.8964    0.7545    0.0000 O   0  0
    2.6003   -1.4977    0.0000 N   0  0
    1.2990   -0.7500    0.0000 C   0  0
    1.2990    0.7500    0.0000 C   0  0
    0.0000    1.5000    0.0000 C   0  0
    0.0000    3.0000    0.0000 C   0  0
    1.2982    3.7531    0.0000 N   0  0
    1.2960    5.2539    0.0000 C   0  0
    2.5925    6.0085    0.0000 C   0  0
    2.5873    7.5085    0.0000 C   0  0
    1.2856    8.2540    0.0000 C   0  0
    1.2804    9.7540    0.0000 F   0  0
   -0.0108    7.4995    0.0000 C   0  0
   -1.3124    8.2450    0.0000 Cl  0  0
   -0.0056    5.9995    0.0000 C   0  0
   -1.2991    3.7500    0.0000 N   0  0
   -2.5981    3.0000    0.0000 C   0  0
   -2.5981    1.5000    0.0000 N   0  0
   -1.2990    0.7500    0.0000 C   0  0
   -1.2990   -0.7500    0.0000 C   0  0
    0.0000   -1.5000    0.0000 C   0  0
   -0.0031   -3.0008    0.0000 O   0  0
   -1.3039   -3.7494    0.0000 C   0  0  1  0  0  0
   -1.4469   -5.2298    0.0000 C   0  0
   -2.9152   -5.5365    0.0000 C   0  0
   -3.6607   -4.2349    0.0000 O   0  0
   -2.6531   -3.1237    0.0000 C   0  0
  1  2  1  0
  2  3  1  0
  2  4  1  0
  4  5  1  0
  5  6  2  0
  6  7  1  0
  7  8  2  0
  7  9  1  0
  9 10  1  0
 10 11  2  0
 11 12  1  0
 12 13  2  0
 13 14  1  0
 14 15  1  0
 15 16  2  0
 16 17  1  0
 17 18  2  0
 18 19  1  0
 18 20  1  0
 20 21  1  0
 20 22  2  0
 22 15  1  0
 13 23  1  0
 23 24  2  0
 24 25  1  0
 25 26  2  0
 26 12  1  0
 26 27  1  0
 27 28  2  0
 28 10  1  0
 28 29  1  0
 30 29  1  1
 30 31  1  0
 31 32  1  0
 32 33  1  0
 33 34  1  0
 34 30  1  0
M  END
> <name>
NCI_AOD5_2014

> <id>
2560

> <plate>
NCI_V5_A

> <well>
A09

> <supplier_cmpd_name>
Afatinib

> <ctcr_id>
3420

> <supplier_cmpd_id>
Afatinib

> <smiles>
CN(C)C/C=C/C(=O)Nc1cc2c(Nc3ccc(F)c(Cl)c3)ncnc2cc1O[C@H]4CCOC4

> <pd_targets>
{PHKG1,PHKG2,MAPK14,MAP2K5,TXK,EPHA6,BLK,MAPK9,DYRK2,EPHB6,ABL1,EGFR,ERBB2,STK10,FLT3,MET,AXL,CSNK1E,ERBB3,MAPK10,HIPK4,ERBB4,SLK,RPS6KA6,STK17A,GAK,SBK1,FRK,HCK,CIT,DYRK1A,DYRK1B,SRC,LCK,MKNK2,MKNK1,
IRAK1,RIPK2}

> <pathway_gtopdb>
{Enzyme,"Unclassified protein",Kinase,"Protein Kinase","CAMK protein kinase group","CMGC protein kinase group","STE protein kinase group","TK protein kinase group","CK1 protein kinase group","AGC prot
ein kinase group","Other protein kinase group","TKL protein kinase group","CAMK protein kinase PHk family","CMGC protein kinase MAPK family","STE protein kinase STE7 family","Tyrosine protein kinase T
ec family","Tyrosine protein kinase Eph family","Tyrosine protein kinase Src family","CMGC protein kinase DYRK family","Tyrosine protein kinase Abl family","Tyrosine protein kinase EGFR family","STE p
rotein kinase STE20 family","Tyrosine protein kinase PDGFR family","Tyrosine protein kinase Met family","Tyrosine protein kinase Axl family","CK1 protein kinase CK1 family","AGC protein kinase RSK fam
ily","CAMK protein kinase DAPK family","Other protein kinase NAK family","Other protein kinase NKF1 family","AGC protein kinase DMPK family","CAMK protein kinase MAPKAPK family","TKL protein kinase IR
AK family","TKL protein kinase RIPK family","CMGC protein kinase p38 subfamily","CMGC protein kinase JNK subfamily","CMGC protein kinase Dyrk2 subfamily","STE protein kinase SLK subfamily","CMGC prote
in kinase HIPK subfamily","AGC protein kinase RSK subfamily","AGC protein kinase CRIK subfamily","CMGC protein kinase Dyrk1 subfamily","CAMK protein kinase MNK subfamily"}

> <pathway_chembl>
{Enzymes,Receptors,"Kinases (EC 2.7.x.x)","Catalytic receptors","CAMK: Calcium/calmodulin-dependent protein kinases","CMGC: Containing CDK",MAPK,GSK3,"CLK families","STE: Homologs of yeast Sterile 7",
"Sterile 11","Sterile 20 kinases","Receptor kinases","CK1: Casein kinase 1","AGC: Containing PKA",PKG,"PKC families","Phosphorylase kinase (PHK) family","Mitogen-activated protein kinases (MAP kinases
)","STE7 family","TK: Tyrosine kinase","Dual-specificity tyrosine-(Y)-phosphorylation regulated kinase (DYRK) family","STE20 family","Casein kinase 1 (CK1) family","RSK family","Death-associated kinas
e (DAPK) family","Other protein kinases","DMPK family","MAPK-Activated Protein Kinase (MAPKAPK) family","TKL: Tyrosine kinase-like","p38 subfamily","Non-receptor tyrosine kinases (nRTKs)","Receptor ty
rosine kinases (RTKs)","JNK subfamily","Dyrk2 subfamily","SLK subfamily","HIPK subfamily","RSK subfamily","Numb-associated kinase (NAK) family","NKF1 family","Other DMPK family kinases","Dyrk1 subfami
ly","MKN subfamily","Interleukin-1 receptor-associated kinase (IRAK) family","Receptor interacting protein kinase (RIPK) family","Tec family","Type XIII RTKs: Ephrin receptor family","Src family","Abl
 family","Type I RTKs: ErbB (epidermal growth factor) receptor family","Type III RTKs: PDGFR",CSFR,Kit,"FLT3 receptor family","Type X RTKs: HGF (hepatocyte growth factor) receptor family","Type XI RTK
s: TAM (TYRO3-","AXL- and MER-TK) receptor family"}

> <pathway_reactome>
{Metabolism,"Immune System","Signal Transduction","Developmental Biology","Gene expression (Transcription)",Disease,"Cell Cycle","Neuronal System","Vesicle-mediated transport","Metabolism of carbohydr
ates","Innate Immune System","Signaling by Receptor Tyrosine Kinases","Nervous system development","RNA Polymerase II Transcription","Infectious disease","Signaling by GPCR",Mitotic,"Intracellular sig
naling by second messengers","Transmission across Chemical Synapses","Membrane Trafficking","Signaling by Rho GTPases","Glycogen metabolism","Toll-like Receptor Cascades","Signaling by NTRKs","Fc epsi
lon receptor (FCERI) signaling","Axon guidance","Generic Transcription Pathway","Leishmania infection","GPCR downstream signalling","Neutrophil degranulation","Signaling by Insulin receptor","Signalin
g by VEGF","Mitotic G2-G2/M phases","PIP3 activates AKT signaling","Neurotransmitter receptors and postsynaptic signal transmission","trans-Golgi Network Vesicle Budding","HIV Infection","RHO GTPase E
ffectors","Mitotic G1 phase and G1/S transition","Signaling by FGFR","Glycogen breakdown (glycogenolysis)","Toll Like Receptor 5 (TLR5) Cascade","Signaling by NTRK1 (TRKA)","FCERI mediated Ca+2 mobili
zation","EPH-Ephrin signaling","Transcriptional regulation by RUNX1","Transcriptional Regulation by TP53","Parasite infection","G alpha (q) signalling events","Semaphorin interactions","Insulin recept
or signalling cascade","VEGFA-VEGFR2 Pathway","G2/M Transition","Negative regulation of the PI3K/AKT network","Activation of NMDA receptors and postsynaptic events","Golgi Associated Vesicle Biogenesi
s","PTEN Regulation","Host Interactions of HIV factors","RHO GTPases activate CIT","G0 and Early G1","Signaling by FGFR4","MyD88 cascade initiated on plasma membrane","Signalling to ERK5","EPHA-mediat
ed growth cone collapse","RUNX1 regulates transcription of genes involved in BCR signaling","Regulation of TP53 Activity","EPHB-mediated forward signaling","Leishmania phagocytosis","Gastrin-CREB sign
alling pathway via PKC and MAPK","Sema4D in semaphorin signaling","IRS-mediated signalling","Centrosome maturation",PI5P,"PP2A and IER3 Regulate PI3K/AKT Signaling","Post NMDA receptor activation even
ts","Regulation of PTEN stability and activity","The role of Nef in HIV-1 replication and disease pathogenesis","Signalling to ERKs","Negative regulation of FGFR4 signaling","MAP kinase activation","R
egulation of TP53 Activity through Phosphorylation","FCGR3A-mediated phagocytosis","EGFR Transactivation by Gastrin","Sema4D induced cell migration and growth-cone collapse","PI3K Cascade","Sema4D med
iated inhibition of cell attachment and migration","Loss of proteins required for interphase microtubule organization from the centrosome","CREB1 phosphorylation through NMDA receptor-mediated activat
ion of RAS signaling","Nef and signal transduction","Signalling to RAS","Long-term potentiation","Nef-mediates down modulation of cell surface receptors by recruiting them to clathrin adapters","Spry 
regulation of FGF signaling","MAPK targets/ Nuclear events mediated by MAP kinases","Loss of Nlp from mitotic centrosomes","RSK activation","p38MAPK events","Nef Mediated CD4 Down-regulation","activat
ed TAK1 mediates p38 MAPK activation","Activation of the AP-1 family of transcription factors"}

> <broad_targets>
{EGFR,ERBB2,ERBB4}

> <broad_moa>
{"EGFR inhibitor"}

> <synonyms>
{Afatinib,439081-18-2,439081182,850140-72-6,850140726,BIBW2992,Tovok,Tomtovok,"BIBW 2992",BIBW-2992,"Afatinib (BIBW2992)","Afatinib free base",UNII-41UD74L59M,UNII41UD74L59M,C24H25ClFN5O3,CHEMBL117365
5,CHEBI:61390,41UD74L59M,"850140-72-6 (free base)","850140726 (free base)",S1011,"Afatinib (USAN:INN)",afa,750691,afatinib,BIBW2992(Tovok)}

> <pdid>
PD003240

> <targets>
{EGFR(HER),HER2,EGFR,Autophagy}

> <classes>
{Kinase inhibitor,Autophagy,JAK/STAT Signaling,Protein Tyrosine Kinase/RTK}

> <pubchem_cids>
{10184653}

$$$$
NCI_AOD5_2014
  SciTegic11012412592D

 39 43  0  0  0  0            999 V2000
  -14.8054    1.5994    0.0000 C   0  0
  -14.3471    0.1711    0.0000 N   0  0
  -15.3549   -0.9399    0.0000 C   0  0
  -14.8966   -2.3682    0.0000 C   0  0
  -13.4306   -2.6856    0.0000 N   0  0
  -12.9691   -4.1137    0.0000 C   0  0
  -11.5018   -4.4291    0.0000 C   0  0
  -10.4979   -3.3146    0.0000 C   0  0
   -9.0307   -3.6268    0.0000 C   0  0
   -8.5674   -5.0535    0.0000 C   0  0
   -7.1001   -5.3688    0.0000 N   0  0
   -6.6386   -6.7970    0.0000 C   0  0
   -7.6445   -7.9097    0.0000 O   0  0
   -5.1713   -7.1123    0.0000 C   0  0
   -4.7081   -8.5390    0.0000 C   0  0
   -3.2409   -8.8512    0.0000 C   0  0
   -2.2370   -7.7366    0.0000 C   0  0
   -0.7698   -8.0488    0.0000 C   0  0
   -2.7002   -6.3100    0.0000 C   0  0
   -4.1674   -5.9978    0.0000 C   0  0
   -1.6958   -5.1948    0.0000 C   0  0
   -0.6913   -4.0797    0.0000 C   0  0
    0.3114   -2.9665    0.0000 C   0  0
    1.8032   -3.1233    0.0000 C   0  0
    2.4133   -1.7530    0.0000 N   0  0
    1.2990   -0.7500    0.0000 C   0  0
    1.2990    0.7500    0.0000 C   0  0
    0.0000    1.5000    0.0000 C   0  0
   -1.2990    0.7500    0.0000 C   0  0
   -1.2990   -0.7500    0.0000 N   0  0
    0.0000   -1.5000    0.0000 N   0  0
   -9.5715   -6.1680    0.0000 C   0  0
  -11.0386   -5.8558    0.0000 C   0  0
  -12.0431   -6.9709    0.0000 C   0  0
  -11.5808   -8.3979    0.0000 F   0  0
  -13.5102   -6.6582    0.0000 F   0  0
  -13.0476   -8.0849    0.0000 F   0  0
  -12.4228   -1.5745    0.0000 C   0  0
  -12.8811   -0.1462    0.0000 C   0  0
  1  2  1  0
  2  3  1  0
  3  4  1  0
  4  5  1  0
  5  6  1  0
  6  7  1  0
  7  8  2  0
  8  9  1  0
  9 10  2  0
 10 11  1  0
 11 12  1  0
 12 13  2  0
 12 14  1  0
 14 15  2  0
 15 16  1  0
 16 17  2  0
 17 18  1  0
 17 19  1  0
 19 20  2  0
 20 14  1  0
 19 21  1  0
 21 22  3  0
 22 23  1  0
 23 24  2  0
 24 25  1  0
 25 26  2  0
 26 27  1  0
 27 28  2  0
 28 29  1  0
 29 30  2  0
 30 31  1  0
 31 23  1  0
 31 26  1  0
 10 32  1  0
 32 33  2  0
 33  7  1  0
 33 34  1  0
 34 35  1  0
 34 36  1  0
 34 37  1  0
  5 38  1  0
 38 39  1  0
 39  2  1  0
M  END
> <name>
NCI_AOD5_2014

> <id>
2561

> <plate>
NCI_V5_A

> <well>
A10

> <supplier_cmpd_name>
Ponatinib

> <ctcr_id>
2107

> <supplier_cmpd_id>
Ponatinib

> <smiles>
CN1CCN(Cc2ccc(NC(=O)c3ccc(C)c(c3)C#Cc4cnc5cccnn45)cc2C(F)(F)F)CC1

> <pd_targets>
{FGFR3,FGFR4,FGFR2,PDGFRA,ABL1,KIT,SRC,BCR,FGFR1,RIPK2,KDR,RET,FLT1,ABL2,LYN,PDGFRB,CDK8,CDK19,RIPK1,GSK3B,RIPK3,CCDC6,FLT3,TEK,LCK}

> <pathway_gtopdb>
{Enzyme,Kinase,"Protein Kinase","TK protein kinase group","Atypical protein kinase group","TKL protein kinase group","CMGC protein kinase group","Tyrosine protein kinase FGFR family","Tyrosine protein
 kinase PDGFR family","Tyrosine protein kinase Abl family","Tyrosine protein kinase Src family","Atypical protein kinase BCR family","TKL protein kinase RIPK family","Tyrosine protein kinase VEGFR fam
ily","Tyrosine protein kinase Ret family","CMGC protein kinase CDK family","CMGC protein kinase GSK family","Tyrosine protein kinase Tie family","CMGC protein kinase CDK8 subfamily"}

> <pathway_chembl>
{Receptors,Enzymes,"Catalytic receptors","Kinases (EC 2.7.x.x)","Receptor kinases","CMGC: Containing CDK",MAPK,GSK3,"CLK families",Atypical,"TK: Tyrosine kinase","TKL: Tyrosine kinase-like","Cyclin-de
pendent kinase (CDK) family","Glycogen synthase kinase (GSK) family","BCR family","Receptor tyrosine kinases (RTKs)","Non-receptor tyrosine kinases (nRTKs)","Receptor interacting protein kinase (RIPK)
 family","CDK8 subfamily","GSK subfamily","Type V RTKs: FGF (fibroblast growth factor) receptor family","Type III RTKs: PDGFR",CSFR,Kit,"FLT3 receptor family","Abl family","Src family","Type IV RTKs: 
VEGF (vascular endothelial growth factor) receptor family","Type XIV RTKs: RET","Type XII RTKs: TIE family of angiopoietin receptors"}

> <pathway_reactome>
{Disease,"Signal Transduction","Immune System","Developmental Biology",Metabolism,"Diseases of signal transduction by growth factor receptors and second messengers","Signaling by Receptor Tyrosine Kin
ases","Infectious disease","Innate Immune System","Nervous system development","Intracellular signaling by second messengers","Metabolism of lipids","MAPK family signaling cascades","Signaling by FGFR
 in disease","Signaling by FGFR","Signaling by PDGFR in disease","Leishmania infection","Signaling by KIT in disease","Signaling by NTRKs","Toll-like Receptor Cascades","Signaling by VEGF","Axon guida
nce","PIP3 activates AKT signaling","Signaling by NOTCH1 in Cancer","Regulation of lipid metabolism by PPARalpha","SARS-CoV Infections","Signaling by Insulin receptor","MAPK1/MAPK3 signaling","HIV Inf
ection","Signaling by FGFR3 in disease","Signaling by FGFR4","Signaling by FGFR2 in disease","Drug resistance of PDGFR mutants","Parasite infection","Drug resistance of KIT mutants","Signaling by NTRK
1 (TRKA)","Signaling by FGFR1 in disease","Toll Like Receptor 5 (TLR5) Cascade","VEGFA-VEGFR2 Pathway","RET signaling","VEGF ligand-receptor interactions","Leishmania parasite growth and survival","Ne
gative regulation of the PI3K/AKT network","Signaling by NOTCH1 HD+PEST Domain Mutants in Cancer","PPARA activates gene expression","Toll Like Receptor 4 (TLR4) Cascade","SARS-CoV-1 Infection","Insuli
n receptor signalling cascade","RAF/MAP kinase cascade","Host Interactions of HIV factors","Signaling by FGFR3 point mutants in cancer","Downstream signaling of activated FGFR4","FGFR2 mutant receptor
 activation","Imatinib-resistant PDGFR mutants","Leishmania phagocytosis","Dasatinib-resistant KIT mutants","Signalling to ERKs","FGFR1 mutant receptor activation","MyD88 cascade initiated on plasma m
embrane","VEGFR2 mediated cell proliferation","VEGF binds to VEGFR leading to receptor dimerization","Anti-inflammatory response favouring Leishmania parasite infection",PI5P,"PP2A and IER3 Regulate P
I3K/AKT Signaling","Constitutive Signaling by NOTCH1 HD+PEST Domain Mutants","MyD88-independent TLR4 cascade","SARS-CoV-1 Genome Replication and Transcription","IRS-mediated signalling","The role of N
ef in HIV-1 replication and disease pathogenesis","FGFR3 mutant receptor activation","FRS-mediated FGFR4 signaling","Activated point mutants of FGFR2","FCGR3A-mediated phagocytosis","Signalling to RAS
","Signaling by activated point mutants of FGFR1","MAP kinase activation","FCGR3A-mediated IL10 synthesis","TRIF(TICAM1)-mediated TLR4 signaling","Replication of the SARS-CoV-1 genome","PI3K Cascade",
"Signaling by cytosolic FGFR1 fusion mutants","Nef-mediates down modulation of cell surface receptors by recruiting them to clathrin adapters","Signaling by activated point mutants of FGFR3","p38MAPK 
events","activated TAK1 mediates p38 MAPK activation","IKK complex recruitment mediated by RIP1","Nef Mediated CD4 Down-regulation"}

> <broad_targets>
{ABL1,BCR,FGFR1,FGFR2,FGFR3,FGFR4,FLT3,KDR,KIT,LCK,LYN,PDGFRA,RET,SRC,TEK}

> <broad_moa>
{"Bcr-Abl kinase inhibitor","FLT3 inhibitor","PDGFR tyrosine kinase receptor inhibitor"}

> <synonyms>
{D09950,Q-4579,Q4579,AB01565847_03,AB0156584703,AB01565847-03,"AB01565847 03",Q198728,PONATINIB,943319-70-8,943319708,AP24534,"Ponatinib (AP24534)","AP 24534",Iclusig,AP-24534,UNII-4340891KFS,UNII4340
891KFS,AP24534(Ponatinib),CHEMBL1171837,CHEBI:78543,"943319-70-8 (free base)","943319708 (free base)",4340891KFS,C29H27F3N6O,"Ponatinib (USAN:INN)",T2372,758487,Ponatinib,S1490}

> <pdid>
PD004100

> <targets>
{"FGFR | FLT-3 | Src-bcr-Abl | VEGFR-",Flt,FGFR,VEGFR,Bcr-Abl,PDGFR,Autophagy,Src}

> <classes>
{Bcr-Abl inhibitor,Angiogenesis,Autophagy,Protein Tyrosine Kinase/RTK}

> <pubchem_cids>
{24826799}

$$$$
NCI_AOD5_2014
  SciTegic11012412592D

 60 65  0  0  1  0            999 V2000
    3.2068   -5.7810    0.0000 C   0  0
    2.2448   -4.6301    0.0000 O   0  0
    2.7600   -3.2200    0.0000 C   0  0  1  0  0  0
    4.0400   -2.4900    0.0000 C   0  0
    4.0400   -1.0400    0.0000 C   0  0  1  0  0  0
    4.7600    0.2300    0.0000 O   0  0
    3.4900    0.9500    0.0000 C   0  0
    2.7600   -0.3100    0.0000 C   0  0  2  0  0  0
    3.9139    0.6592    0.0000 O   0  0
    3.6492    2.1365    0.0000 C   0  0
    2.2381    2.6452    0.0000 C   0  0
    4.7950    3.1046    0.0000 O   0  0
    1.4900   -1.0400    0.0000 C   0  0  1  0  0  0
    0.2100   -0.3100    0.0000 C   0  0  2  0  0  0
    0.2081    1.1912    0.0000 O   0  0
    1.5064    1.9441    0.0000 C   0  0
    2.8067    1.1962    0.0000 O   0  0
    1.5045    3.4449    0.0000 C   0  0
    2.8011    4.1993    0.0000 C   0  0
    2.7961    5.6993    0.0000 C   0  0
    1.4946    6.4450    0.0000 C   0  0
    0.1980    5.6907    0.0000 C   0  0
    0.2030    4.1907    0.0000 C   0  0
   -1.0600   -1.0400    0.0000 C   0  0  2  0  0  0
   -1.0600    0.4600    0.0000 O   0  0
   -2.3300   -0.3100    0.0000 C   0  0
   -3.6100   -1.0400    0.0000 C   0  0  2  0  0  0
   -4.9097   -0.2889    0.0000 O   0  0
   -6.2103   -1.0379    0.0000 C   0  0
   -6.2115   -2.5379    0.0000 O   0  0
   -7.5097   -0.2869    0.0000 C   0  0  2  0  0  0
   -7.5086    1.2131    0.0000 O   0  0
   -8.8103   -1.0359    0.0000 C   0  0  1  0  0  0
  -10.1074   -0.2810    0.0000 N   0  0
  -10.1032    1.2199    0.0000 C   0  0
   -8.8018    1.9658    0.0000 O   0  0
  -11.4003    1.9748    0.0000 O   0  0
  -11.3961    3.4756    0.0000 C   0  0
  -12.6925    4.2301    0.0000 C   0  0
  -10.0947    4.2215    0.0000 C   0  0
  -11.3911    4.9756    0.0000 C   0  0
   -8.8129   -2.5367    0.0000 C   0  0
  -10.1117   -3.2872    0.0000 C   0  0
  -10.1112   -4.7872    0.0000 C   0  0
   -8.8120   -5.5368    0.0000 C   0  0
   -7.5132   -4.7864    0.0000 C   0  0
   -7.5136   -3.2864    0.0000 C   0  0
   -3.6100   -2.4900    0.0000 C   0  0
   -2.3300   -3.2200    0.0000 C   0  0
   -1.0600   -2.4900    0.0000 C   0  0  1  0  0  0
   -0.0974   -1.3380    0.0000 O   0  0
    1.3805   -1.5945    0.0000 C   0  0
    0.2100   -3.2200    0.0000 C   0  0
    0.2075   -4.7200    0.0000 O   0  0
    1.4900   -2.4900    0.0000 C   0  0  2  0  0  0
    1.4875   -3.9900    0.0000 C   0  0
   -2.0200    0.2800    0.0000 C   0  0
   -0.9882    1.3687    0.0000 C   0  0
   -3.4648    0.6831    0.0000 C   0  0
   -4.9070   -3.2434    0.0000 C   0  0
  1  2  1  0
  3  2  1  6
  3  4  1  0
  5  4  1  6
  5  6  1  0
  6  7  1  0
  7  8  1  0
  8  5  1  0
  8  9  1  1
  9 10  1  0
 10 11  1  0
 10 12  2  0
 13  8  1  6
 13 14  1  0
 14 15  1  1
 15 16  1  0
 16 17  2  0
 16 18  1  0
 18 19  2  0
 19 20  1  0
 20 21  2  0
 21 22  1  0
 22 23  2  0
 23 18  1  0
 14 24  1  0
 24 25  1  1
 24 26  1  0
 26 27  1  0
 27 28  1  1
 28 29  1  0
 29 30  2  0
 29 31  1  0
 31 32  1  1
 31 33  1  0
 33 34  1  6
 34 35  1  0
 35 36  2  0
 35 37  1  0
 37 38  1  0
 38 39  1  0
 38 40  1  0
 38 41  1  0
 33 42  1  0
 42 43  2  0
 43 44  1  0
 44 45  2  0
 45 46  1  0
 46 47  2  0
 47 42  1  0
 27 48  1  0
 48 49  2  3
 49 50  1  0
 50 51  1  1
 51 52  1  0
 50 53  1  0
 53 54  2  0
 53 55  1  0
 55  3  1  0
 55 13  1  0
 55 56  1  6
 49 57  1  0
 57 24  1  0
 57 58  1  0
 57 59  1  0
 48 60  1  0
M  END
> <name>
NCI_AOD5_2014

> <id>
2562

> <plate>
NCI_V5_A

> <well>
A11

> <supplier_cmpd_name>
Cabazitaxel

> <ctcr_id>
571

> <supplier_cmpd_id>
761432

> <smiles>
CO[C@H]1C[C@H]2OC[C@@]2(OC(C)=O)[C@H]3[C@H](OC(=O)c4ccccc4)[C@]5(O)C[C@H](OC(=O)[C@H](O)[C@@H](NC(=O)OC(C)(C)C)c6ccccc6)C(=C([C@@H](OC)C(=O)[C@]13C)C5(C)C)C

> <pd_targets>
{TUBB5,TUBA1A,TUBA1B,TUBA1C,TUBA3C,TUBA3E,TUBA4A,TUBB,TUBB1,TUBB2A,TUBB2B,TUBB3,TUBB4A,TUBB4B,TUBB6,TUBB8}

> <pathway_gtopdb>
{"Structural protein"}

> <pathway_chembl>
{"Other protein targets",Tubulins}

> <pathway_reactome>
{"Cell Cycle",Mitotic,"Mitotic G2-G2/M phases","M Phase","G2/M Transition","Mitotic Metaphase and Anaphase","Centrosome maturation","Mitotic Anaphase","Loss of proteins required for interphase microtu
bule organization from the centrosome","Nuclear Envelope (NE) Reassembly","Loss of Nlp from mitotic centrosomes","Sealing of the nuclear envelope (NE) by ESCRT-III"}

> <broad_targets>
{TUBA1A,TUBA1B,TUBA1C,TUBA3C,TUBA3D,TUBA3E,TUBA4A,TUBB,TUBB1,TUBB2A,TUBB2B,TUBB3,TUBB4A,TUBB4B,TUBB6,TUBB8}

> <broad_moa>
{"microtubule inhibitor"}

> <synonyms>
{CABAZITAXEL,183133-96-2,183133962,Jevtana,"Taxoid XRP6258",Cabazitaxelum,"TXD 258",Xrp6258,XRP-6258,XRP6258,UNII-51F690397J,UNII51F690397J,"XRP 6258","Jevtana (TN)",CHEBI:63584,51F690397J,kabazitaxel
,"Jevtana Kit","Cabazitaxel (Jevtana)","cabazitaxel acetonate","Cabazitaxel I",761432,"NSC 761432",Cabazitaxel}

> <pdid>
PD004087

> <targets>
{}

> <classes>
{"Microtubule inhibitor"}

> <pubchem_cids>
{9854073}

$$$$
NCI_AOD5_2014
  SciTegic11012412592D

 24 26  0  0  0  0            999 V2000
    2.5981   -1.5000    0.0000 N   0  0
    1.2990   -0.7500    0.0000 C   0  0
    1.2990    0.7500    0.0000 N   0  0
    0.0000    1.5000    0.0000 C   0  0
    0.0000    3.0000    0.0000 F   0  0
   -1.2990    0.7500    0.0000 N   0  0
   -1.2990   -0.7500    0.0000 C   0  0
   -2.4133   -1.7530    0.0000 N   0  0
   -1.8032   -3.1233    0.0000 C   0  0
   -0.3114   -2.9665    0.0000 N   0  0
    0.0000   -1.5000    0.0000 C   0  0
   -3.8813   -1.4408    0.0000 C   0  0
   -4.8896   -2.5354    0.0000 O   0  0
   -6.2433   -1.8893    0.0000 C   0  0
   -7.5587   -2.6066    0.0000 C   0  0
   -7.5962   -4.1069    0.0000 O   0  0
   -8.9138   -4.8255    0.0000 P   0  0
  -10.1939   -4.0436    0.0000 O   0  0
  -10.2311   -5.5430    0.0000 O   0  0
   -8.9513   -6.3250    0.0000 O   0  0
   -6.0471   -0.4022    0.0000 C   0  0
   -7.1349    0.6307    0.0000 O   0  0
   -4.5721   -0.1292    0.0000 C   0  0
   -3.9177    1.2205    0.0000 O   0  0
  1  2  1  0
  2  3  2  0
  3  4  1  0
  4  5  1  0
  4  6  2  0
  6  7  1  0
  7  8  1  0
  8  9  1  0
  9 10  2  0
 10 11  1  0
 11  2  1  0
 11  7  2  0
  8 12  1  0
 12 13  1  0
 13 14  1  0
 14 15  1  0
 15 16  1  0
 16 17  1  0
 17 18  1  0
 17 19  1  0
 17 20  2  0
 14 21  1  0
 21 22  1  0
 21 23  1  0
 23 12  1  0
 23 24  1  0
M  END
> <name>
NCI_AOD5_2014

> <id>
2563

> <plate>
NCI_V5_A

> <well>
B02

> <supplier_cmpd_name>
Fludarabine phosphate

> <ctcr_id>
5380

> <supplier_cmpd_id>
312887

> <smiles>
Nc1nc(F)nc2n(cnc12)C3OC(CO[P](O)(O)=O)C(O)C3O

> <pd_targets>
{CA5A,POLA1,POLA2,POLD1,POLD2,POLD3,POLD4,POLE,POLE2,POLE3,PRIM1,PRIM2,RRM1,RRM2,RRM2B}

> <pathway_gtopdb>
{Enzyme,Lyase,Transferase,Oxidoreductase}

> <pathway_chembl>
{Enzymes,"Carbonic anhydrases"}

> <pathway_reactome>
{Metabolism,"Reversible hydration of carbon dioxide"}

> <broad_targets>
{POLA1,POLD1,POLE,RRM1,RRM2,RRM2B}

> <broad_moa>
{"ribonucleotide reductase inhibitor"}

> <synonyms>
{fludara,FAMP,"9H-Purin-6-amine, 2-fluoro-9-(5-O-phosphono-.beta.-D-arabinofuranosyl)-","9HPurin6amine, 2fluoro9(5Ophosphono.beta.Darabinofuranosyl)","9H Purin 6 amine, 2 fluoro 9 (5 O phosphono .beta
. D arabinofuranosyl)",2-F-ara-AMP,2FaraAMP,2FaraAM,312887,"NSC 312887","Fludarabine phosphate"}

> <pdid>
PD000327

> <targets>
{}

> <classes>
{"Purine Antimetabolite"}

> <pubchem_cids>
{3368,118985277}

$$$$
NCI_AOD5_2014
  SciTegic11012412592D

 22 23  0  0  0  0            999 V2000
    2.5983   -3.0004    0.0000 C   0  0
    2.5988   -1.5004    0.0000 C   0  0
    3.8975   -2.2510    0.0000 C   0  0
    3.8990   -0.7508    0.0000 C   0  0
    5.1985   -0.0016    0.0000 N   0  0
    1.2990   -0.7500    0.0000 C   0  0
    1.2990    0.7500    0.0000 C   0  0
    0.0000    1.5000    0.0000 C   0  0
   -0.0031    3.0008    0.0000 C   0  0
   -1.3039    3.7494    0.0000 N   0  0
   -1.4470    5.2297    0.0000 C   0  0
   -2.9153    5.5365    0.0000 N   0  0
   -3.6607    4.2349    0.0000 C   0  0
   -2.6532    3.1236    0.0000 N   0  0
   -1.2990    0.7500    0.0000 C   0  0
   -1.2990   -0.7500    0.0000 C   0  0
    0.0000   -1.5000    0.0000 C   0  0
   -2.5988   -1.5004    0.0000 C   0  0
   -2.5983   -3.0004    0.0000 C   0  0
   -3.8975   -2.2510    0.0000 C   0  0
   -3.8990   -0.7508    0.0000 C   0  0
   -5.1985   -0.0017    0.0000 N   0  0
  1  2  1  0
  2  3  1  0
  2  4  1  0
  4  5  3  0
  2  6  1  0
  6  7  2  0
  7  8  1  0
  8  9  1  0
  9 10  1  0
 10 11  1  0
 11 12  2  0
 12 13  1  0
 13 14  2  0
 14 10  1  0
  8 15  2  0
 15 16  1  0
 16 17  2  0
 17  6  1  0
 16 18  1  0
 18 19  1  0
 18 20  1  0
 18 21  1  0
 21 22  3  0
M  END
> <name>
NCI_AOD5_2014

> <id>
2564

> <plate>
NCI_V5_A

> <well>
B03

> <supplier_cmpd_name>
Anastrozole

> <ctcr_id>
4554

> <supplier_cmpd_id>
719344

> <smiles>
CC(C)(C#N)c1cc(Cn2cncn2)cc(c1)C(C)(C)C#N

> <pd_targets>
{CYP19A1,UGT1A4}

> <pathway_gtopdb>
{Enzyme,"Cytochrome P450",Transferase,"Cytochrome P450 family 19","Cytochrome P450 family 19A","Cytochrome P450 19A1"}

> <pathway_chembl>
{Enzymes,"Cytochrome P450",CYP11,CYP17,CYP19,"CYP20 and CYP21 families"}

> <pathway_reactome>
{Metabolism,Disease,"Biological oxidations","Diseases of metabolism","Phase I - Functionalization of compounds","Metabolic disorders of biological oxidation enzymes","Cytochrome P450 - arranged by sub
strate type","Defective UGT1A4 causes hyperbilirubinemia","Endogenous sterols"}

> <broad_targets>
{CYP19A1}

> <broad_moa>
{"aromatase inhibitor"}

> <synonyms>
{anastrozole,120511-73-1,120511731,Arimidex,anastrazole,Anastrozol,ZD1033,ZD-1033,"ICI D1033",UNII-2Z07MYW1AZ,UNII2Z07MYW1AZ,ICI-D1033,ICID1033,2Z07MYW1AZ,CHEMBL1399,CHEBI:2704,"Anastrozole, 98",NSC71
9344,NCGC00164619-01,NCGC0016461901,Asiolex,DSSTox_CID_2607,DSSToxCID2607,DSSTox-CID-2607,"DSSTox CID 2607",DSSTox_RID_76656,DSSToxRID76656,DSSTox-RID-76656,"DSSTox RID 76656",DSSTox_GSID_226,DSSToxGS
ID226,DSSTox-GSID-226,"DSSTox GSID 226",T0393,719344,SAM001246525,Prestw-1222,"NSC 719344",Anastrozole,CPD000466301}

> <pdid>
PD003143

> <targets>
{}

> <classes>
{"Aromatase Inhibitor"}

> <pubchem_cids>
{2187}

$$$$
NCI_AOD5_2014
  SciTegic11012412592D

 22 24  0  0  0  0            999 V2000
    3.8978   -2.2504    0.0000 N   0  0
    2.5988   -1.5004    0.0000 C   0  0
    1.2990   -0.7500    0.0000 C   0  0
    1.2990    0.7500    0.0000 C   0  0
    0.0000    1.5000    0.0000 C   0  0
   -1.2990    0.7500    0.0000 C   0  0
   -1.2990   -0.7500    0.0000 C   0  0
    0.0000   -1.5000    0.0000 C   0  0
   -2.6003    1.4977    0.0000 C   0  0
   -3.8990    0.7455    0.0000 N   0  0
   -5.2526    1.3618    0.0000 C   0  0
   -6.2524    0.2436    0.0000 N   0  0
   -5.4979   -1.0529    0.0000 C   0  0
   -4.0317   -0.7359    0.0000 N   0  0
   -2.6030    2.9985    0.0000 C   0  0
   -3.9023    3.7481    0.0000 C   0  0
   -3.9029    5.2481    0.0000 C   0  0
   -2.6041    5.9986    0.0000 C   0  0
   -1.3048    5.2491    0.0000 C   0  0
   -1.3042    3.7491    0.0000 C   0  0
   -2.6047    7.4994    0.0000 C   0  0
   -2.6053    8.9994    0.0000 N   0  0
  1  2  3  0
  2  3  1  0
  3  4  2  0
  4  5  1  0
  5  6  2  0
  6  7  1  0
  7  8  2  0
  8  3  1  0
  6  9  1  0
  9 10  1  0
 10 11  1  0
 11 12  2  0
 12 13  1  0
 13 14  2  0
 14 10  1  0
  9 15  1  0
 15 16  2  0
 16 17  1  0
 17 18  2  0
 18 19  1  0
 19 20  2  0
 20 15  1  0
 18 21  1  0
 21 22  3  0
M  END
> <name>
NCI_AOD5_2014

> <id>
2565

> <plate>
NCI_V5_A

> <well>
B04

> <supplier_cmpd_name>
Letrozole

> <ctcr_id>
4575

> <supplier_cmpd_id>
719345

> <smiles>
N#Cc1ccc(cc1)C(n2cncn2)c3ccc(cc3)C#N

> <pd_targets>
{CYP19A1,TSHR,CYP2C19,CYP3A4,CYP11B2,CYP11B1}

> <pathway_gtopdb>
{Enzyme,"Membrane receptor","Cytochrome P450","Family A G protein-coupled receptor","Cytochrome P450 family 19","Peptide receptor (family A GPCR)","Cytochrome P450 family 2","Cytochrome P450 family 3"
,"Cytochrome P450 family 11","Cytochrome P450 family 19A","Glycohormone receptor","Cytochrome P450 family 2C","Cytochrome P450 family 3A","Cytochrome P450 family 11B","Cytochrome P450 19A1","Cytochrom
e P450 2C19","Cytochrome P450 3A4","Cytochrome P450 11B2","Cytochrome P450 11B1"}

> <pathway_chembl>
{Enzymes,Receptors,"Cytochrome P450","G protein-coupled receptors",CYP11,CYP17,CYP19,"CYP20 and CYP21 families","Glycoprotein hormone receptors","CYP2 family: drug metabolising subset","CYP3 family"}

> <pathway_reactome>
{Metabolism,Disease,"Biological oxidations","Infectious disease","Metabolism of lipids","Phase I - Functionalization of compounds","Leishmania infection","Biosynthesis of specialized proresolving medi
ators (SPMs)","Cytochrome P450 - arranged by substrate type","Leishmania parasite growth and survival","Biosynthesis of DHA-derived SPMs","Endogenous sterols","Anti-inflammatory response favouring Lei
shmania parasite infection",Xenobiotics,"Biosynthesis of maresins","ADORA2B mediated anti-inflammatory cytokines production","CYP2E1 reactions","Biosynthesis of maresin-like SPMs"}

> <broad_targets>
{CYP19A1}

> <broad_moa>
{"aromatase inhibitor"}

> <synonyms>
{112809-51-5,112809515,Femara,"4,4'-((1h-1,2,4-triazol-1-yl)methylene)dibenzonitrile","4,4'((1h1,2,4triazol1yl)methylene)dibenzonitrile",Letrozol,"CGS 20267",CGS-20267,CGS20267,"4-((4-cyanophenyl)-(1,
2,4-triazol-1-yl)methyl)benzonitrile","4((4cyanophenyl)(1,2,4triazol1yl)methyl)benzonitrile",LETRAZOLE,Femera,Benzonitrile,4,4'-(1H-1,4'(1H1,2,4-triazol-1-ylmethyl,4triazol1ylmethyl,T1590,719345,SAM00
1246649,Prestw-1025,"NSC 719345",Letrozole,CPD000466343}

> <pdid>
PD001661

> <targets>
{Aromatase,Autophagy}

> <classes>
{Non-steroidal aromatase inhibitor,Autophagy,Others}

> <pubchem_cids>
{3902}

$$$$
NCI_AOD5_2014
  SciTegic11012412592D

 68 71  0  0  1  0            999 V2000
    6.9056    4.5744    0.0000 C   0  0
    6.6527    6.0529    0.0000 O   0  0
    5.2453    6.5743    0.0000 C   0  0  2  0  0  0
    4.0927    5.6144    0.0000 C   0  0
    2.6850    6.1326    0.0000 C   0  0  1  0  0  0
    2.4301    7.6108    0.0000 C   0  0
    3.5827    8.5707    0.0000 C   0  0
    4.9903    8.0525    0.0000 C   0  0  1  0  0  0
    6.1416    9.0153    0.0000 O   0  0
    5.8843   10.4939    0.0000 C   0  0
    7.0356   11.4568    0.0000 C   0  0
    6.7785   12.9346    0.0000 O   0  0
    1.5337    5.1698    0.0000 C   0  0
    1.7909    3.6911    0.0000 C   0  0  1  0  0  0
    3.1995    3.1753    0.0000 C   0  0
    0.6400    2.7300    0.0000 C   0  0  2  0  0  0
    0.8000    1.1200    0.0000 C   0  0
    2.0600    0.3500    0.0000 C   0  0
    1.8870   -1.1400    0.0000 O   0  0
    3.4300    0.8000    0.0000 C   0  0  2  0  0  0
    3.8662    2.2352    0.0000 C   0  0
    4.3600   -0.3900    0.0000 C   0  0
    5.8000   -0.4000    0.0000 C   0  0
    6.6151    0.8592    0.0000 C   0  0
    6.4400   -1.8000    0.0000 C   0  0  1  0  0  0
    7.9345   -1.9281    0.0000 O   0  0
    5.5100   -3.1600    0.0000 C   0  0  1  0  0  0
    4.0182   -3.2790    0.0000 O   0  0
    3.1659   -2.0447    0.0000 C   0  0
    6.5100   -4.2800    0.0000 C   0  0
    7.9504   -3.8613    0.0000 O   0  0
    6.2500   -5.8600    0.0000 C   0  0  2  0  0  0
    7.5042   -6.6827    0.0000 C   0  0
    4.8700   -6.7500    0.0000 C   0  0
    3.3400   -6.2300    0.0000 C   0  0  2  0  0  0
    2.3025   -7.3134    0.0000 C   0  0
    2.7800   -4.7900    0.0000 C   0  0
    1.1200   -4.8600    0.0000 C   0  0
    0.1200   -3.6900    0.0000 C   0  0
   -1.4100   -4.1500    0.0000 C   0  0
   -2.6300   -3.1700    0.0000 C   0  0
   -4.1200   -3.7800    0.0000 C   0  0
   -4.3154   -5.2672    0.0000 C   0  0
   -5.3700   -2.8300    0.0000 C   0  0  2  0  0  0
   -6.8600   -3.4400    0.0000 C   0  0
   -7.8600   -2.2400    0.0000 C   0  0  2  0  0  0
   -9.2500   -2.5000    0.0000 C   0  0
  -10.1800   -1.4400    0.0000 C   0  0
   -9.7100    0.0100    0.0000 C   0  0  1  0  0  0
  -10.7377    1.1027    0.0000 C   0  0
   -8.0800    0.4300    0.0000 C   0  0  1  0  0  0
   -8.4778    1.8763    0.0000 O   0  0
   -7.2300   -0.9300    0.0000 O   0  0
   -6.6100    0.8600    0.0000 C   0  0
   -5.5855   -0.2356    0.0000 O   0  0
   -6.1000    2.2500    0.0000 C   0  0
   -7.0129    3.4402    0.0000 O   0  0
   -4.5400    2.3900    0.0000 N   0  0
   -5.4800    3.8300    0.0000 C   0  0
   -4.8400    5.2900    0.0000 C   0  0
   -3.4600    5.5000    0.0000 C   0  0
   -2.6400    4.4900    0.0000 C   0  0
   -3.1200    3.1200    0.0000 C   0  0  1  0  0  0
   -1.9000    2.2900    0.0000 C   0  0
   -1.8545    0.7907    0.0000 O   0  0
   -0.7100    3.2100    0.0000 O   0  0
   -5.1613   -1.3445    0.0000 O   0  0
   -3.7708   -0.7819    0.0000 C   0  0
  1  2  1  0
  3  2  1  6
  3  4  1  0
  4  5  1  0
  5  6  1  0
  6  7  1  0
  7  8  1  0
  8  3  1  0
  8  9  1  1
  9 10  1  0
 10 11  1  0
 11 12  1  0
  5 13  1  6
 13 14  1  0
 14 15  1  1
 14 16  1  0
 16 17  1  6
 17 18  1  0
 18 19  2  0
 18 20  1  0
 20 21  1  6
 20 22  1  0
 22 23  2  0
 23 24  1  0
 23 25  1  0
 25 26  1  1
 25 27  1  0
 27 28  1  6
 28 29  1  0
 27 30  1  0
 30 31  2  0
 30 32  1  0
 32 33  1  6
 32 34  1  0
 34 35  1  0
 35 36  1  6
 35 37  1  0
 37 38  2  0
 38 39  1  0
 39 40  2  0
 40 41  1  0
 41 42  2  0
 42 43  1  0
 42 44  1  0
 44 45  1  0
 46 45  1  6
 46 47  1  0
 47 48  1  0
 48 49  1  0
 49 50  1  1
 49 51  1  0
 51 52  1  1
 51 53  1  0
 53 46  1  0
 51 54  1  0
 54 55  2  0
 54 56  1  0
 56 57  2  0
 56 58  1  0
 58 59  1  0
 59 60  1  0
 60 61  1  0
 61 62  1  0
 63 62  1  1
 63 58  1  0
 63 64  1  0
 64 65  2  0
 64 66  1  0
 66 16  1  0
 44 67  1  6
 67 68  1  0
M  END
> <name>
NCI_AOD5_2014

> <id>
2566

> <plate>
NCI_V5_A

> <well>
B05

> <supplier_cmpd_name>
Everolimus

> <ctcr_id>
3629

> <supplier_cmpd_id>
733504

> <smiles>
CO[C@@H]1C[C@@H](CC[C@H]1OCCO)C[C@@H](C)[C@@H]2CC(=O)[C@H](C)\C=C(C)\[C@@H](O)[C@@H](OC)C(=O)[C@H](C)C[C@H](C)/C=C/C=C/C=C(C)/[C@H](C[C@@H]3CC[C@@H](C)[C@@](O)(O3)C(=O)C(=O)N4CCCC[C@H]4C(=O)O2)OC

> <pd_targets>
{MTOR,ABCC3,ABCB11,ABCC2,ABCC4,KCNE1,KCNQ1,FKBP1A}

> <pathway_gtopdb>
{Enzyme,Transporter,"Ion channel",Kinase,"Primary active transporter","Voltage-gated ion channel",Isomerase,"Protein Kinase","ATP-binding cassette","Potassium channels","Atypical protein kinase group"
,"ABCC subfamily","ABCB subfamily","Voltage-gated potassium channel","Atypical protein kinase PIKK family","Atypical protein kinase FRAP subfamily"}

> <pathway_chembl>
{Enzymes,Transporters,"Kinases (EC 2.7.x.x)","ATP-binding cassette transporter family","Peptidyl-prolyl cis/trans isomerases",Atypical,"ABCC subfamily","ABCB subfamily","Phosphatidyl inositol 3' kinas
e-related kinases (PIKK) family","FRAP subfamily"}

> <pathway_reactome>
{"Gene expression (Transcription)",Metabolism,Disease,Hemostasis,"RNA Polymerase II Transcription","Metabolism of lipids","Disorders of transmembrane transporters","Platelet activation","signaling and
 aggregation","Diseases of signal transduction by growth factor receptors and second messengers","Generic Transcription Pathway","Metabolism of steroids","ABC transporter disorders","Response to eleva
ted platelet cytosolic Ca2+","Signaling by TGF-beta Receptor Complex in Cancer","Transcriptional Regulation by TP53","Bile acid and bile salt metabolism","Defective ABCC2 causes DJS","Platelet degranu
lation","Loss of Function of TGFBR1 in Cancer","Regulation of TP53 Activity","Recycling of bile acids and salts","Synthesis of bile acids and bile salts","TGFBR1 LBD Mutants in Cancer","Regulation of 
TP53 Expression and Degradation","Synthesis of bile acids and bile salts via 7alpha-hydroxycholesterol","Regulation of TP53 Degradation"}

> <broad_targets>
{MTOR}

> <broad_moa>
{"mTOR inhibitor"}

> <synonyms>
{"001, RAD",40-O-(2-hydroxyethyl)-rapamycin,40O(2hydroxyethyl)rapamycin,"40 O (2 hydroxyethyl) rapamycin",40-O-(2-Hydroxyethyl)rapamycin,40O(2Hydroxyethyl)rapamycin,"40 O (2 Hydroxyethyl)rapamycin",Af
initor,Certican,Everolimus,RAD,"RAD 001",733504,"NSC 733504"}

> <pdid>
PD004083

> <targets>
{mTOR,Apoptosis,Autophagy,FKBP}

> <classes>
{mTOR inhibitor,Apoptosis,Autophagy,Immunology/Inflammation,PI3K/Akt/mTOR}

> <pubchem_cids>
{6442177}

$$$$
NCI_AOD5_2014
  SciTegic11012412592D

 29 31  0  0  0  0            999 V2000
   -6.4717  -14.5676    0.0000 C   0  0
   -6.0099  -13.1405    0.0000 C   0  0
   -4.5425  -12.8257    0.0000 N   0  0
   -3.5342  -13.9374    0.0000 C   0  0
   -2.0679  -13.6212    0.0000 C   0  0
   -4.0804  -11.3978    0.0000 C   0  0
   -2.6130  -11.0830    0.0000 C   0  0
   -2.1509   -9.6551    0.0000 N   0  0
   -0.6835   -9.3403    0.0000 C   0  0
    0.3219  -10.4535    0.0000 O   0  0
   -0.2222   -7.9149    0.0000 C   0  0
    1.2028   -7.4466    0.0000 C   0  0
    2.4192   -8.3243    0.0000 C   0  0
    1.1979   -5.9466    0.0000 N   0  0
   -0.2234   -5.5086    0.0000 C   0  0
   -0.6890   -4.0818    0.0000 C   0  0
    0.3114   -2.9665    0.0000 C   0  0
    1.8032   -3.1233    0.0000 C   0  0
    2.5532   -4.4223    0.0000 O   0  0
    2.4133   -1.7530    0.0000 N   0  0
    1.2990   -0.7500    0.0000 C   0  0
    1.2990    0.7500    0.0000 C   0  0
    0.0000    1.5000    0.0000 C   0  0
   -1.2990    0.7500    0.0000 C   0  0
   -2.5981    1.5000    0.0000 F   0  0
   -1.2990   -0.7500    0.0000 C   0  0
    0.0000   -1.5000    0.0000 C   0  0
   -1.1079   -6.7042    0.0000 C   0  0
   -2.6079   -6.7003    0.0000 C   0  0
  1  2  1  0
  2  3  1  0
  3  4  1  0
  4  5  1  0
  3  6  1  0
  6  7  1  0
  7  8  1  0
  8  9  1  0
  9 10  2  0
  9 11  1  0
 11 12  2  0
 12 13  1  0
 12 14  1  0
 14 15  1  0
 15 16  1  0
 16 17  2  0
 17 18  1  0
 18 19  2  0
 18 20  1  0
 20 21  1  0
 21 22  2  0
 22 23  1  0
 23 24  2  0
 24 25  1  0
 24 26  1  0
 26 27  2  0
 27 17  1  0
 27 21  1  0
 15 28  2  0
 28 11  1  0
 28 29  1  0
M  END
> <name>
NCI_AOD5_2014

> <id>
2567

> <plate>
NCI_V5_A

> <well>
B06

> <supplier_cmpd_name>
Sunitinib

> <ctcr_id>
341

> <supplier_cmpd_id>
750690

> <smiles>
CCN(CC)CCNC(=O)c1c(C)[nH]c(\C=C2/C(=O)Nc3ccc(F)cc23)c1C

> <pd_targets>
{RPS6KA5,CSF1R,CAMKK1,GAK,CAMK2A,RPS6KA2,PHKG2,EPHB1,CAMK2B,FLT3,ABL1,MARK3,CDK18,PDPK1,CDK14,MYLK4,TYRO3,WEE1,STK25,CSNK1E,CSNK1G2,CSNK2A1,DYRK1B,MYO3B,CDK7,PAK4,NUAK2,SIK1,PKN1,MKNK2,PRKD2,SNRK,MAP2
K5,LRRK2,ANKK1,PRKAA1,RIPK4,CAMKK2,FGFR2,LATS1,PRKCQ,CLK2,DAPK3,SBK3,HCK,CDK16,TNIK,DCLK2,PTK2B,SRC,MINK1,TTK,TYK2,JAK1,STK35,CDK4,AURKB,RPS6KA3,STK10,CLK1,EPHA5,JAK2,SBK1,AURKA,FLT4,EPHA6,CDPK1,EPHA7
,KIT,MYLK2,ABL2,MARK1,SLK,EPHB4,PIM3,MAP4K1,BLK,BMPR2,STK24,MUSK,MYLK,CIT,DAPK1,PDGFRA,PDGFRB,DCLK1,DCLK3,STK38,NIM1K,ROCK2,TAOK3,MAP4K2,FRK,BRD7,MAP4K3,MERTK,STK4,STK3,RIPK1,RPS6KA4,STK33,NTRK1,NTRK3
,FGFR1,LCK,DDR2,LYN,RIOK3,PAK6,CAMK1G,TSSK1B,STK16,CSNK1G1,BRSK1,BRSK2,INSR,CAMK2D,KCNH2,RPS6KA1,MAP3K15,KDR,EGFR,AAK1,DAPK2,CAMK1D,STK17A,YES1,RIOK2,FGR,NEK2,PTK2,CAMK2G,FER,CAMK1,MAP3K4,FYN,NEK7,IRA
K3,ITK,SRPK2,TNK1,PRKAA2,LATS2,NUAK1,FES,MAP2K2,FLT1,PIK3CG,CSNK1A1,DYRK2,EPHB6,ERN1,HIPK3,HIPK4,CLK4,PIP4K2B,RIOK1,SRPK1,PHKG1,CHEK1,STK17B,FGFR3,STK11,MARK2,MAP3K3,GRK7,HIPK2,INSRR,STK39,MAP3K7,BTK,
AURKC,MKNK1,STK26,MAP3K2,IGF1R,PAK5,EIF2AK2,RET,CHEK2,GRK4,IRAK1,AXL,PLK4,PAK3,BMP2K,CSNK2A2,ABCB11,IKBKE,MARK4,MAP3K13,OXSR1,PRPF4,ULK3,JAK3,RPS6KA6,MET,PIP5K1A,NTRK2,MYO3A,EPHA3,MAP3K12,PKNB,CSNK1G3
,CDK17,MAP4K4,MELK,ULK1,SRPK3,DSTYK,GSC2,TLK1,TLK2,PKN2,MAPK7,PRKD1,MYLK3,CAMK4,CSNK1D,PRKD3,PIM2,SGK3,MAP4K5,PIK3CA,MAP3K9,PRPF4B,TAOK1,STK38L,TBK1,MAP2K4,MAP3K11,PLK2,HIPK1,ACHE,SIK2,TNK2,CSNK1A1L,M
APK9,TNKS2,MAP2K1,PTK6,DLK1,HUNK,CILK1,DDR1,RPS6KB1,EIF2AK4,AKT2,CHUK,DYRK1A,CDKL2,TIE1,BRD9,ALK,ROCK1,MAP3K19,MAP2K3,LTK,FGFR4,GRK1,MAST1,BMPR1B,ULK2,KMT2A,MEN1,LMNA,CDK5,IRAK4,MAPK10,MATK,MAP2K6,HTT
,P2RY14,PRKCA,PIK3CD,KCNE1,KCNQ1,KCND3,SCN5A,SLC22A1,CACNA1C,CACNA1D,CACNA1F,CACNA1S,DYRK3,MST1R,TSSK2,LIMK1,SGK2,PRKCD}

> <pathway_gtopdb>
{Enzyme,"Epigenetic regulator","Ion channel","Unclassified protein",Transporter,"Other nuclear protein","Membrane receptor",Kinase,Reader,"Voltage-gated ion channel",Transferase,"Primary active transp
orter",Hydrolase,"Family A G protein-coupled receptor","Electrochemical transporter","Protein Kinase",Bromodomain,"Potassium channels","ATP-binding cassette","Small molecule receptor (family A GPCR)",
"Voltage-gated sodium channel","SLC superfamily of solute carriers","Voltage-gated calcium channel","AGC protein kinase group","TK protein kinase group","Other protein kinase group","CAMK protein kina
se group","CMGC protein kinase group","STE protein kinase group","CK1 protein kinase group","TKL protein kinase group","Atypical protein kinase group","Voltage-gated potassium channel","ABCB subfamily
","Nucleotide-like receptor (family A GPCR)","SLC22 family of organic cation and anion transporters","AGC protein kinase RSK family","Tyrosine protein kinase PDGFR family","Other protein kinase CAMKK 
family","Other protein kinase NAK family","CAMK protein kinase CAMK2 family","CAMK protein kinase PHk family","Tyrosine protein kinase Eph family","Tyrosine protein kinase Abl family","CAMK protein ki
nase CAMK1 family","CMGC protein kinase CDK family","AGC protein kinase PDK1 subfamily","CAMK protein kinase MLCK family","Tyrosine protein kinase Axl family","Other protein kinase WEE family","STE pr
otein kinase STE20 family","CK1 protein kinase CK1 family","Other protein kinase CK2 family","CMGC protein kinase DYRK family","AGC protein kinase PKN family","CAMK protein kinase MAPKAPK family","CAM
K protein kinase PKD family","STE protein kinase STE7 family","TKL protein kinase LRRK family","TKL protein kinase RIPK family","Tyrosine protein kinase FGFR family","AGC protein kinase NDR family","A
GC protein kinase PKC family","CMGC protein kinase CLK family","CAMK protein kinase DAPK family","Other protein kinase NKF1 family","Tyrosine protein kinase Src family","CAMK protein kinase DCAMK1 fam
ily","Tyrosine protein kinase Fak family","Other protein kinase TTK family","Tyrosine protein kinase JakA family","Other protein kinase NKF4 family","Other protein kinase AUR family","Tyrosine protein
 kinase VEGFR family","CAMK protein kinase PIM family","TKL protein kinase STKR family","Tyrosine protein kinase Musk family","AGC protein kinase DMPK family","CAMK protein kinase unique family","Tyro
sine protein kinase Trk family","Tyrosine protein kinase DDR family","Atypical protein kinase RIO family","CAMK protein kinase TSSK family","Tyrosine protein kinase InsR family","STE protein kinase ST
E11 family","Tyrosine protein kinase EGFR family","Other protein kinase NEK family","Tyrosine protein kinase Fer family","TKL protein kinase IRAK family","Tyrosine protein kinase Tec family","CMGC pro
tein kinase SRPK family","Tyrosine protein kinase Ack family","AGC protein kinase GRK family","TKL protein kinase MLK family","Other protein kinase PEK family","Tyrosine protein kinase Ret family","CA
MK protein kinase RAD53 family","Other protein kinase PLK family","Other protein kinase ULK family","Tyrosine protein kinase Met family","Other protein kinase TLK family","CMGC protein kinase MAPK fam
ily","AGC protein kinase SGK family","Other protein kinase IKK family","CMGC protein kinase RCK family","AGC protein kinase AKT family","CMGC protein kinase CDKL family","Tyrosine protein kinase Tie f
amily","Tyrosine protein kinase Alk family","AGC protein kinase MAST family","Tyrosine protein kinase Csk family","Purine receptor","AGC protein kinase MSK subfamily","Other protein kinase Meta subfam
ily","AGC protein kinase RSK subfamily","CAMK protein kinase MARK subfamily","CMGC protein kinase PCTAIRE","CMGC protein kinase PFTAIRE","STE protein kinase YSK subfamily","CMGC protein kinase Dyrk1 s
ubfamily","STE protein kinase NinaC subfamily","CMGC protein kinase CDK7 subfamily","STE protein kinase PAKB subfamily","CAMK protein kinase NuaK subfamily","CAMK protein kinase QIK subfamily","CAMK p
rotein kinase MNK subfamily","CAMK protein kinase AMPK subfamily","AGC protein kinase PKC delta subfamily","CMGC protein kinase TAIRE subfamily","STE protein kinase MSN subfamily","STE protein kinase 
SLK subfamily","STE protein kinase KHS subfamily","TKL protein kinase STKR Type 2 subfamily","AGC protein kinase CRIK subfamily","CAMK protein kinase NIM1 subfamily","AGC protein kinase ROCK subfamily
","STE protein kinase TAO subfamily","STE protein kinase MST subfamily","Atypical protein kinase RIO3 subfamily","CAMK protein kinase BRSK subfamily","STE protein kinase ASK","Atypical protein kinase 
RIO2 subfamily","Tyrosine protein kinase SrcA","CMGC protein kinase Dyrk2 subfamily","CMGC protein kinase HIPK subfamily","Atypical protein kinase RIO1 subfamily","CAMK protein kinase CHK1 subfamily",
"CAMK protein kinase LKB subfamily","STE protein kinase MEKK2","AGC protein kinase GRK subfamily","STE protein kinase FRAY subfamily","TKL protein kinase TAK1 subfamily","Other protein kinase PKR","ST
E protein kinase PAKA subfamily","TKL protein kinase LZK subfamily","CK1 protein kinase CK1-g","CAMK protein kinase MELK subfamily","CMGC protein kinase ERK5","TKL protein kinase MLK subfamily","Other
 protein kinase PLK2","CK1 protein kinase CK1-a","CMGC protein kinase JNK subfamily","CMGC protein kinase MAK","AGC protein kinase p70 subfamily","Other protein kinase GCN2 subfamily","TKL protein kin
ase STKR Type 1 subfamily","CMGC protein kinase CDK5 subfamily","AGC protein kinase PKC alpha subfamily","TKL protein kinase LISK family","TKL protein kinase LIMK subfamily"}

> <pathway_chembl>
{Enzymes,Receptors,"Ion channels",Transporters,"Kinases (EC 2.7.x.x)","Catalytic receptors","Chromatin modifying enzymes","Voltage-gated ion channels","ATP-binding cassette transporter family","Acetyl
choline turnover","Poly ADP-ribose polymerases","G protein-coupled receptors","SLC superfamily of solute carriers","AGC: Containing PKA",PKG,"PKC families","Receptor kinases","CAMK: Calcium/calmodulin
-dependent protein kinases","CMGC: Containing CDK",MAPK,GSK3,"CLK families","STE: Homologs of yeast Sterile 7","Sterile 11","Sterile 20 kinases","CK1: Casein kinase 1","Enzymatic bromodomain-containin
g proteins",Atypical,"Potassium channels","Lipid modifying kinases","ABCB subfamily","P2Y receptors","Voltage-gated sodium channels","SLC22 family of organic cation and anion transporters","Voltage-ga
ted calcium channels","RSK family","TK: Tyrosine kinase","Other protein kinases","CAMK2 family","Phosphorylase kinase (PHK) family","CAMK-like (CAMKL) family","Cyclin-dependent kinase (CDK) family","P
DK1 family","Myosin Light Chain Kinase (MLCK) family","STE20 family","Casein kinase 1 (CK1) family","Dual-specificity tyrosine-(Y)-phosphorylation regulated kinase (DYRK) family","Protein kinase N (PK
N) family","MAPK-Activated Protein Kinase (MAPKAPK) family","Protein kinase D (PKD) family","STE7 family","TKL: Tyrosine kinase-like","NDR family","Protein kinase C (PKC) family","CLK family","Death-a
ssociated kinase (DAPK) family","DCAMKL family","PIM family","DMPK family","Bromodomain kinase (BRDK) family","CAMK-unique family","RIO family","CAMK1 family","Testis specific kinase (TSSK) family","V
oltage-gated potassium channels","STE11 family","SRPK family",Phosphatidylinositol-4,"5-bisphosphate 3-kinase family","Type II PIP kinases (1-phosphatidylinositol-5-phosphate 4-kinase family)","G prot
ein-coupled receptor kinases (GRKs)","Type I PIP kinases (1-phosphatidylinositol-4-phosphate 5-kinase family)","Mitogen-activated protein kinases (MAP kinases)","SGK family","RCK family","Akt (Protein
 kinase B","PKB) family","Cyclin-dependent kinase-like (CDKL) family","MAST family","Organic cation transporters (OCT)","MSK subfamily","Receptor tyrosine kinases (RTKs)","CAMKK family","Numb-associat
ed kinase (NAK) family","RSK subfamily","Non-receptor tyrosine kinases (nRTKs)","MARK subfamily","TAIRE subfamily","WEE family","YSK subfamily","Casein kinase 2 (CK2) family","Dyrk1 subfamily","NinaC 
subfamily","CDK7 subfamily","PAKB subfamily","NuaK subfamily","QIK subfamily","MKN subfamily","SNRK subfamily","Leucine-rich repeat kinase (LRRK) family","Receptor interacting protein kinase (RIPK) fa
mily","AMPK subfamily","Delta subfamily","NKF1 family","MSN subfamily","TTK family","NKF4 family","CDK4 subfamily","Aurora kinase (Aur) family","SLK subfamily","KHS subfamily","Receptor serine/threoni
ne kinase (RSTK) family","Other DMPK family kinases","NIM1 subfamily","Rho kinase","TAO subfamily","MST subfamily","RIO3 subfamily","NAK family","BRSK subfamily","RIO2 subfamily","NIMA (never in mitos
is gene a)- related kinase (NEK) family","Interleukin-1 receptor-associated kinase (IRAK) family","Dyrk2 subfamily","IRE family","HIPK subfamily","RIO1 subfamily","CHK1 subfamily","LKB subfamily","Ops
in/rhodopsin kinases","FRAY subfamily","Mixed Lineage Kinase (MLK) family","PEK family","GRK4 subfamily","Polo-like kinase (PLK) family","PAKA subfamily","IKK family","Unc-51-like kinase (ULK) family"
,"MELK subfamily","Other-unique family","Tousled-like kinase (TLK) family","ERK subfamily","PRP4 subfamily","JNK subfamily","HUNK subfamily","p70 subfamily","STE20 subfamily","CDK5 subfamily","Type II
I RTKs: PDGFR",CSFR,Kit,"FLT3 receptor family","Meta subfamily","Type XIII RTKs: Ephrin receptor family","Abl family","Type XI RTKs: TAM (TYRO3-","AXL- and MER-TK) receptor family","Type V RTKs: FGF (
fibroblast growth factor) receptor family","Src family","Fak family","Janus kinase (JakA) family","Type IV RTKs: VEGF (vascular endothelial growth factor) receptor family","Type II receptor serine/thr
eonine kinases","Type IX RTKs: MuSK","Type VII RTKs: Neurotrophin receptor/Trk family","Type XVI RTKs: DDR (collagen receptor) family","Type II RTKs: Insulin receptor family","Type I RTKs: ErbB (epide
rmal growth factor) receptor family","Fer family","Tec family","Ack family","TAK1 subfamily","Other PEK family kinases","Type XIV RTKs: RET","LZK subfamily","Type X RTKs: HGF (hepatocyte growth factor
) receptor family","MLK subfamily","GCN2 subfamily","Type XII RTKs: TIE family of angiopoietin receptors","Type XIX RTKs: Leukocyte tyrosine kinase (LTK) receptor family","Type I receptor serine/threo
nine kinases","Csk family","LIM domain kinase (LISK) family","LIMK subfamily"}

> <pathway_reactome>
{"Immune System","Gene expression (Transcription)","Neuronal System","Vesicle-mediated transport",Metabolism,"Developmental Biology","Signal Transduction",Disease,"Cell Cycle","Circadian Clock","Progr
ammed Cell Death","Cellular responses to external stimuli","Extracellular matrix organization",Hemostasis,"Metabolism of RNA","Muscle contraction","Metabolism of proteins","DNA Repair","Organelle biog
enesis and maintenance",Autophagy,"Transport of small molecules","Innate Immune System","RNA Polymerase II Transcription","Transmission across Chemical Synapses","Membrane Trafficking","Metabolism of 
carbohydrates","Nervous system development","Signaling by Receptor Tyrosine Kinases","Infectious disease","Diseases of signal transduction by growth factor receptors and second messengers","Cell Cycle
 Checkpoints",Mitotic,"Metabolism of lipids","Signaling by Rho GTPases","Signaling by Non-Receptor Tyrosine Kinases","Signaling by Hippo","Signaling by GPCR",Apoptosis,"Cellular responses to stress","
Cytokine Signaling in Immune system","Signaling by TGFB family members","ECM proteoglycans","Intracellular signaling by second messengers","Cell surface interactions at the vascular wall","Non-integri
n membrane-ECM interactions","rRNA processing","Cardiac conduction","Adaptive Immune System","Unfolded Protein Response (UPR)","DNA Double-Strand Break Repair","Cilium Assembly","Processing of Capped 
Intron-Containing Pre-mRNA","Signaling by Hedgehog",Macroautophagy,"Disorders of Developmental Biology","Ion channel transport","Signaling by NOTCH","MTOR signalling","SLC-mediated transmembrane trans
port","Toll-like Receptor Cascades","Generic Transcription Pathway","Neurotransmitter receptors and postsynaptic signal transmission","trans-Golgi Network Vesicle Budding","Glycogen metabolism","Axon 
guidance","Signaling by Insulin receptor","Leishmania infection","Oncogenic MAPK signaling","G2/M Checkpoints","Mitotic G2-G2/M phases","Sphingolipid metabolism","HIV Infection","RHO GTPase Effectors"
,"Signaling by NTRKs","Signaling by PTK6","Signaling by FGFR in disease","GPCR downstream signalling","Caspase activation via extrinsic apoptotic signalling pathway","Cellular Senescence","Signaling b
y Interleukins","Interferon Signaling","Mitotic G1 phase and G1/S transition","M Phase","Neutrophil degranulation","Signaling by VEGF","Signaling by KIT in disease","Signaling by BMP","Apoptotic execu
tion phase","PIP3 activates AKT signaling","rRNA processing in the nucleus and cytosol","Phase 3 - rapid repolarisation","Clathrin-mediated endocytosis","Regulation of mitotic cell cycle","Signaling b
y SCF-KIT","TCR signaling","Signaling by PDGFR in disease","Phospholipid metabolism","Signaling by WNT in cancer","IRE1alpha activates chaperones","Homology Directed Repair","Signaling by FGFR","Signa
ling by Type 1 Insulin-like Growth Factor 1 Receptor (IGF1R)","Influenza Infection","Metabolism of steroids","Anchoring of the basal body to the plasma membrane","mRNA Splicing","Hedgehog 'on' state",
"Selective autophagy","Disorders of Nervous System Development","Stimuli-sensing channels","Signaling by NOTCH1","mTORC1-mediated signalling","Response of EIF2AK4 (GCN2) to amino acid deficiency","Sig
naling by ERBB2","GPCR ligand binding","Phase 1 - inactivation of fast Na+ channels","Transport of bile salts and organic acids","metal ions and amine compounds","Toll Like Receptor 5 (TLR5) Cascade",
"Transcriptional Regulation by VENTX","Activation of NMDA receptors and postsynaptic events","Golgi Associated Vesicle Biogenesis","Glycogen breakdown (glycogenolysis)","EPH-Ephrin signaling","Insulin
 receptor signalling cascade","Parasite infection","Signaling by RAS mutants","Transcriptional Regulation by TP53","G2/M DNA damage checkpoint","G2/M Transition","Sphingolipid de novo biosynthesis","H
IV Life Cycle","Signaling by ROBO receptors","RHO GTPases activate PKNs","Signaling by NTRK1 (TRKA)","PTK6 promotes HIF1A stabilization","Signaling by FGFR2 in disease","G alpha (i) signalling events"
,"Caspase activation via Dependence Receptors in the absence of ligand","Host Interactions of HIV factors","Oxidative Stress Induced Senescence","Interleukin-2 family signaling","Interferon alpha/beta
 signaling","Antiviral mechanism by IFN-stimulated genes","G1 Phase","Mitotic Metaphase and Anaphase","VEGF ligand-receptor interactions","Drug resistance of KIT mutants","Transcriptional regulation b
y RUNX1","Apoptotic cleavage of cellular proteins","RHO GTPases activate PAKs","RHO GTPases activate CIT","Semaphorin interactions","PTEN Regulation","Toll Like Receptor 4 (TLR4) Cascade","L1CAM inter
actions","Signaling by NTRK3 (TRKC)","Signaling by FGFR1 in disease","Leishmania parasite growth and survival","Major pathway of rRNA processing in the nucleolus and cytosol","Negative regulation of t
he PI3K/AKT network","VEGFA-VEGFR2 Pathway","G alpha (q) signalling events","Cargo recognition for clathrin-mediated endocytosis","APC/C-mediated degradation of cell cycle proteins","Mitotic Prophase"
,"Toll Like Receptor 2 (TLR2) Cascade","Generation of second messenger molecules","Drug resistance of PDGFR mutants","PI Metabolism","Signaling by AMER1 mutants","HDR through Homologous Recombination 
(HRR) or Single Strand Annealing (SSA)","Signaling by FGFR3 in disease","Interleukin-1 family signaling","Signaling by FGFR4","IGF1R signaling cascade","NS1 Mediated Effects on Host Pathways","RET sig
naling","Bile acid and bile salt metabolism","mRNA Splicing - Major Pathway",Mitophagy,"Pervasive developmental disorders","Glycerophospholipid biosynthesis","Activated NOTCH1 Transmits Signal to the 
Nucleus","G0 and Early G1","Downregulation of ERBB2 signaling","Transcriptional Regulation by MECP2","Class A/1 (Rhodopsin-like receptors)",Interleukin-3,"Interleukin-5 and GM-CSF signaling","Organic 
cation/anion/zwitterion transport","NCAM signaling for neurite out-growth","MyD88 cascade initiated on plasma membrane","Post NMDA receptor activation events","EPHB-mediated forward signaling","IRS-me
diated signalling","Leishmania phagocytosis","Signaling downstream of RAS mutants","Regulation of TP53 Activity","Chk1/Chk2(Cds1) mediated inactivation of Cyclin B:Cdk1 complex","Centrosome maturation
","Late Phase of HIV Life Cycle","Activation of RAC1","Activated PKN1 stimulates transcription of AR (androgen receptor) regulated genes KLK2 and KLK3","Signalling to ERK5","FGFR2 mutant receptor acti
vation","Visual phototransduction","The role of Nef in HIV-1 replication and disease pathogenesis","Interleukin-2 signaling","Signalling to ERKs","Regulation of IFNA signaling","ISG15 antiviral mechan
ism","Cyclin D associated events in G1","Mitotic Anaphase","EPHA-mediated growth cone collapse","VEGF binds to VEGFR leading to receptor dimerization","Dasatinib-resistant KIT mutants","Role of ABL in
 ROBO-SLIT signaling","RUNX1 regulates transcription of genes involved in BCR signaling","Sema4D in semaphorin signaling","Regulation of PTEN stability and activity","MyD88-independent TLR4 cascade","
Recycling pathway of L1","Activated NTRK3 signals through PI3K","FGFR1 mutant receptor activation","Anti-inflammatory response favouring Leishmania parasite infection",PI5P,"PP2A and IER3 Regulate PI3
K/AKT Signaling","VEGFR2 mediated cell proliferation","Gastrin-CREB signalling pathway via PKC and MAPK","Activation of APC/C and APC/C:Cdc20 mediated degradation of mitotic proteins","Nuclear Envelop
e Breakdown","Toll Like Receptor TLR6:TLR2 Cascade","Imatinib-resistant PDGFR mutants","CRMPs in Sema3A signaling","Synthesis of PIPs at the plasma membrane","Truncations of AMER1 destabilize the dest
ruction complex","HDR through Homologous Recombination (HRR)","Signaling by FGFR3 point mutants in cancer","Interleukin-1 signaling","Negative regulation of FGFR4 signaling","IRS-related events trigge
red by IGF1R","Inhibition of PKR","Ephrin signaling","Synthesis of bile acids and bile salts","Interleukin-15 signaling","Activation of TRKA receptors","Receptor Mediated Mitophagy","Loss of function 
of MECP2 in Rett syndrome","Synthesis of PC","Downstream signaling of activated FGFR4","Regulation of MECP2 expression and activity","Nucleotide-like (purinergic) receptors","Interleukin receptor SHC 
signaling","Interaction between L1 and Ankyrins","Organic cation transport","NCAM1 interactions","MAP kinase activation","Activation of RAC1 downstream of NMDARs","CREB1 phosphorylation through NMDA r
eceptor-mediated activation of RAS signaling","PI3K Cascade","FCGR3A-mediated phagocytosis","Regulation of TP53 Expression and Degradation","Loss of proteins required for interphase microtubule organi
zation from the centrosome","Regulation of TP53 Activity through Phosphorylation","Transcription of the HIV genome","Activation of AMPK downstream of NMDARs","Activated point mutants of FGFR2","The ph
ototransduction cascade","Nef and signal transduction","Signalling to RAS","Separation of Sister Chromatids","Sema4D induced cell migration and growth-cone collapse","Regulation of TP53 Activity throu
gh Acetylation","TRIF(TICAM1)-mediated TLR4 signaling","Prolonged ERK activation events","Signaling by activated point mutants of FGFR1","Nef-mediates down modulation of cell surface receptors by recr
uiting them to clathrin adapters","FCGR3A-mediated IL10 synthesis","EGFR Transactivation by Gastrin","APC/C:Cdc20 mediated degradation of mitotic proteins","Activation of NIMA Kinases NEK9",NEK6,NEK7,
"MyD88:MAL(TIRAP) cascade initiated on plasma membrane","Homologous DNA Pairing and Strand Exchange","FGFR3 mutant receptor activation","Spry regulation of FGF signaling","Synthesis of bile acids and 
bile salts via 7alpha-hydroxycholesterol","Sema4D mediated inhibition of cell attachment and migration","NGF-independant TRKA activation","Loss of phosphorylation of MECP2 at T308","Signaling by cytos
olic FGFR1 fusion mutants","CD163 mediating an anti-inflammatory response","FRS-mediated FGFR4 signaling","Nuclear Envelope (NE) Reassembly","P2Y receptors","MAPK targets/ Nuclear events mediated by M
AP kinases","Ras activation upon Ca2+ influx through NMDA receptor","Regulation of TP53 Degradation","Loss of Nlp from mitotic centrosomes","HIV Transcription Elongation",Inactivation,"recovery and re
gulation of the phototransduction cascade","p38MAPK events","IKK complex recruitment mediated by RIP1","ARMS-mediated activation","Nef Mediated CD4 Down-regulation","APC:Cdc20 mediated degradation of 
cell cycle proteins prior to satisfation of the cell cycle checkpoint","Frs2-mediated activation","PI5P Regulates TP53 Acetylation","Presynaptic phase of homologous DNA pairing and strand exchange","S
ignaling by activated point mutants of FGFR3","TRAF6-mediated induction of TAK1 complex within TLR4 complex","activated TAK1 mediates p38 MAPK activation","Activation of IRF3/IRF7 mediated by TBK1/IKK
 epsilon","RSK activation","JNK (c-Jun kinases) phosphorylation and  activation mediated by activated human TAK1","PKB-mediated events","Initiation of Nuclear Envelope (NE) Reformation","CREB phosphor
ylation","Tat-mediated elongation of the HIV-1 transcript","APC-Cdc20 mediated degradation of Nek2A","ERK/MAPK targets","Activation of the AP-1 family of transcription factors","PDE3B signalling","For
mation of HIV-1 elongation complex containing HIV-1 Tat","ERKs are inactivated","Signaling by MST1","DAG and IP3 signaling","CaM pathway","Calmodulin induced events"}

> <broad_targets>
{CSF1R,FGFR1,FLT1,FLT3,FLT4,KDR,KIT,PDGFRA,PDGFRB,RET}

> <broad_moa>
{"FLT3 inhibitor","KIT inhibitor","PDGFR tyrosine kinase receptor inhibitor","RET tyrosine kinase inhibitor","VEGFR inhibitor"}

> <synonyms>
{Sunitinib,557795-19-4,557795194,Sutent,"Sunitinib malate",SU11248,Su-011248,Su011248,SU-11248,"Sunitinib Base","SU 11248",UNII-V99T50803M,UNIIV99T50803M,342641-94-5,342641945,CHEMBL535,CHEBI:38940,SU
011248,NSC750690,V99T50803M,341031-54-7,341031547,sunitinibum,"Sunitinib (INN)","Sunitinib (free bas",T0374L,750690,"NSC 750690","Sunitinib (free base)"}

> <pdid>
PD003663

> <targets>
{Apoptosis,Autophagy,IRE1,Mitophagy,PDGFR,VEGFR}

> <classes>
{Tyrosine kinase inhibitor,Apoptosis,Autophagy,Cell Cycle/DNA Damage,Protein Tyrosine Kinase/RTK}

> <pubchem_cids>
{5329102}

$$$$
NCI_AOD5_2014
  SciTegic11012412592D

 33 35  0  0  0  0            999 V2000
    3.8926   -3.7566    0.0000 C   0  0
    2.5951   -3.0039    0.0000 N   0  0
    2.5973   -1.5031    0.0000 C   0  0
    3.8976   -0.7553    0.0000 O   0  0
    1.2990   -0.7500    0.0000 C   0  0
    1.2990    0.7500    0.0000 C   0  0
    0.0000    1.5000    0.0000 C   0  0
   -0.0031    3.0008    0.0000 O   0  0
   -1.3039    3.7494    0.0000 C   0  0
   -1.3092    5.2494    0.0000 C   0  0
   -2.6108    5.9949    0.0000 C   0  0
   -3.9073    5.2404    0.0000 C   0  0
   -5.2081    5.9890    0.0000 N   0  0
   -5.2112    7.4898    0.0000 C   0  0
   -3.9134    8.2421    0.0000 O   0  0
   -6.5120    8.2384    0.0000 N   0  0
   -6.5150    9.7392    0.0000 C   0  0
   -7.8140   10.4893    0.0000 C   0  0
   -7.8140   11.9893    0.0000 C   0  0
   -6.5150   12.7393    0.0000 C   0  0
   -6.5150   14.2393    0.0000 Cl  0  0
   -5.2160   11.9893    0.0000 C   0  0
   -5.2160   10.4893    0.0000 C   0  0
   -3.9162   12.7397    0.0000 C   0  0
   -3.9153   14.2397    0.0000 F   0  0
   -2.6174   11.9893    0.0000 F   0  0
   -2.6168   13.4891    0.0000 F   0  0
   -3.9021    3.7404    0.0000 C   0  0
   -5.1985    2.9859    0.0000 F   0  0
   -2.6005    2.9949    0.0000 C   0  0
   -1.2990    0.7500    0.0000 C   0  0
   -1.2990   -0.7500    0.0000 C   0  0
    0.0000   -1.5000    0.0000 N   0  0
  1  2  1  0
  2  3  1  0
  3  4  2  0
  3  5  1  0
  5  6  2  0
  6  7  1  0
  7  8  1  0
  8  9  1  0
  9 10  2  0
 10 11  1  0
 11 12  2  0
 12 13  1  0
 13 14  1  0
 14 15  2  0
 14 16  1  0
 16 17  1  0
 17 18  2  0
 18 19  1  0
 19 20  2  0
 20 21  1  0
 20 22  1  0
 22 23  2  0
 23 17  1  0
 22 24  1  0
 24 25  1  0
 24 26  1  0
 24 27  1  0
 12 28  1  0
 28 29  1  0
 28 30  2  0
 30  9  1  0
  7 31  2  0
 31 32  1  0
 32 33  2  0
 33  5  1  0
M  END
> <name>
NCI_AOD5_2014

> <id>
2568

> <plate>
NCI_V5_A

> <well>
B07

> <supplier_cmpd_name>
Regorafenib

> <ctcr_id>
4826

> <supplier_cmpd_id>
Regorafenib

> <smiles>
CNC(=O)c1cc(Oc2ccc(NC(=O)Nc3ccc(Cl)c(c3)C(F)(F)F)c(F)c2)ccn1

> <pd_targets>
{PDGFRB,RET,GLRA1,TEK,RAF1,KDR,KIT,BRAF,FLT4,EPHX2,FLT1,FGFR1,FLT3,PDGFRA,DDR2,FRK,FGFR2,MAPK11,ABL1,NTRK1,EPHA2}

> <pathway_gtopdb>
{Enzyme,"Ion channel",Kinase,"Ligand-gated ion channel",Protease,"Protein Kinase","Glycine receptor","Serine protease","TK protein kinase group","TKL protein kinase group","Serine protease SC clan","C
MGC protein kinase group","Tyrosine protein kinase PDGFR family","Tyrosine protein kinase Ret family","Tyrosine protein kinase Tie family","TKL protein kinase RAF family","Tyrosine protein kinase VEGF
R family","Serine protease S33 family","Tyrosine protein kinase FGFR family","Tyrosine protein kinase DDR family","Tyrosine protein kinase Src family","CMGC protein kinase MAPK family","Tyrosine prote
in kinase Abl family","Tyrosine protein kinase Trk family","Tyrosine protein kinase Eph family","CMGC protein kinase p38 subfamily"}

> <pathway_chembl>
{Receptors,"Ion channels",Enzymes,"Catalytic receptors","Ligand-gated ion channels",Hydrolases,"Kinases (EC 2.7.x.x)","Receptor kinases","Glycine receptors","CMGC: Containing CDK",MAPK,GSK3,"CLK famil
ies","TK: Tyrosine kinase","TKL: Tyrosine kinase-like","Mitogen-activated protein kinases (MAP kinases)","Receptor tyrosine kinases (RTKs)","RAF family","Non-receptor tyrosine kinases (nRTKs)","p38 su
bfamily","Type III RTKs: PDGFR",CSFR,Kit,"FLT3 receptor family","Type XIV RTKs: RET","Type XII RTKs: TIE family of angiopoietin receptors","Type IV RTKs: VEGF (vascular endothelial growth factor) rece
ptor family","Type V RTKs: FGF (fibroblast growth factor) receptor family","Type XVI RTKs: DDR (collagen receptor) family","Src family","Abl family","Type VII RTKs: Neurotrophin receptor/Trk family","
Type XIII RTKs: Ephrin receptor family"}

> <pathway_reactome>
{"Signal Transduction","Developmental Biology","Neuronal System",Disease,Metabolism,"Extracellular matrix organization","Immune System","Intracellular signaling by second messengers","Nervous system d
evelopment","Transmission across Chemical Synapses","MAPK family signaling cascades","Signaling by Receptor Tyrosine Kinases","Diseases of signal transduction by growth factor receptors and second mes
sengers","Metabolism of lipids","Non-integrin membrane-ECM interactions","Innate Immune System","Infectious disease","PIP3 activates AKT signaling","Axon guidance","Neurotransmitter receptors and post
synaptic signal transmission","MAPK1/MAPK3 signaling","Signaling by VEGF","Signaling by KIT in disease","Signaling by NTRKs","Biosynthesis of specialized proresolving mediators (SPMs)","Signaling by F
GFR in disease","Signaling by Insulin receptor","Toll-like Receptor Cascades","Leishmania infection","Signaling by PDGFR in disease","Negative regulation of the PI3K/AKT network","RET signaling","RAF/
MAP kinase cascade","VEGFA-VEGFR2 Pathway","Drug resistance of KIT mutants","Signaling by NTRK1 (TRKA)","VEGF ligand-receptor interactions","Biosynthesis of DHA-derived SPMs","Signaling by FGFR1 in di
sease","Insulin receptor signalling cascade","PTEN Regulation","Signaling by FGFR2 in disease","Toll Like Receptor 5 (TLR5) Cascade","Parasite infection","Drug resistance of PDGFR mutants","EPH-Ephrin
 signaling",PI5P,"PP2A and IER3 Regulate PI3K/AKT Signaling","Negative regulation of MAPK pathway","VEGFR2 mediated cell proliferation","Dasatinib-resistant KIT mutants","Signalling to ERKs","VEGF bin
ds to VEGFR leading to receptor dimerization","Biosynthesis of maresins","FGFR1 mutant receptor activation","IRS-mediated signalling","Regulation of PTEN stability and activity","FGFR2 mutant receptor
 activation","MyD88 cascade initiated on plasma membrane","Leishmania phagocytosis","Imatinib-resistant PDGFR mutants","EPHA-mediated growth cone collapse","Negative feedback regulation of MAPK pathwa
y","Prolonged ERK activation events","Signaling by activated point mutants of FGFR1","PI3K Cascade","Activated point mutants of FGFR2","MAP kinase activation","FCGR3A-mediated phagocytosis","ARMS-medi
ated activation","MAPK targets/ Nuclear events mediated by MAP kinases","Activation of the AP-1 family of transcription factors"}

> <broad_targets>
{ABL1,BRAF,DDR2,EPHA2,FGFR1,FGFR2,FLT1,FLT4,FRK,KDR,KIT,MAPK11,NTRK1,PDGFRA,PDGFRB,RAF1,RET,TEK}

> <broad_moa>
{"FGFR inhibitor","KIT inhibitor","PDGFR tyrosine kinase receptor inhibitor","RAF inhibitor","RET tyrosine kinase inhibitor","VEGFR inhibitor"}

> <synonyms>
{"EGORAFENIB (BAY 734506",Regorafenib,755037-03-7,755037037,"BAY 73-4506","BAY 734506",Stivarga,Regorafenibum,"Regorafenib (BAY 73-4506)","Regorafenib (BAY 734506)",BAY73-4506,BAY734506,BAY-73-4506,UN
II-24T2A1DOYB,UNII24T2A1DOYB,24T2A1DOYB,CHEMBL1946170,CHEBI:68647,"Stivarga (TN)","BAY73-4506 hydrochloride","BAY734506 hydrochloride",1255386-16-3,1255386163,Regor,T1792,763932,S1178,regorafenib,"BAY
 73-4506(Regorafenib)"}

> <pdid>
PD003518

> <targets>
{VEGFR-PDGFR,c-Kit,Raf,VEGFR,c-RET}

> <classes>
{"Protein Tyrosine Kinase","Kinase inhibitor"}

> <pubchem_cids>
{11167602}

$$$$
NCI_AOD5_2014
  SciTegic11012412592D

 15 13  0  0  1  0            999 V2000
    1.2990   -0.7500    0.0000 C   0  0
    1.2990    0.7500    0.0000 C   0  0
    0.0000    1.5000    0.0000 C   0  0
   -1.2990    0.7500    0.0000 C   0  0  2  0  0  0
   -1.2990   -0.7500    0.0000 C   0  0  1  0  0  0
    0.0000   -1.5000    0.0000 C   0  0
   -2.5981   -1.5000    0.0000 N   0  0
   -2.5981    1.5000    0.0000 N   0  0
    5.0990    0.3750    0.0000 C   0  0
    3.7998   -0.3746    0.0000 O   0  0
    6.3990   -0.3750    0.0000 C   0  0
    7.6983    0.3746    0.0000 O   0  0
    6.3990   -1.8750    0.0000 O   0  5
    5.0990    1.8750    0.0000 O   0  5
   10.1990    0.0000    0.0000 Pt  0  0
  1  2  1  0
  2  3  1  0
  3  4  1  0
  4  5  1  0
  5  6  1  0
  6  1  1  0
  5  7  1  1
  4  8  1  6
  9 10  2  0
  9 11  1  0
 11 12  2  0
 11 13  1  0
  9 14  1  0
M  CHG  3  13  -1  14  -1  15   4
M  END
> <name>
NCI_AOD5_2014

> <id>
2569

> <plate>
NCI_V5_A

> <well>
B08

> <supplier_cmpd_name>
Oxaliplatin

> <ctcr_id>
5952

> <supplier_cmpd_id>
266046

> <smiles>
C1CC[C@H]([C@@H](C1)N)N.C(=O)(C(=O)[O-])[O-].[Pt+4]

> <pd_targets>
.

> <pathway_gtopdb>
.

> <pathway_chembl>
.

> <pathway_reactome>
.

> <broad_targets>
.

> <broad_moa>
.

> <synonyms>
{ANW-41171,ANW41171,CO0042,AKOS025295547,"Eloxatin (TN) (Sanofi Synthelab)",AB01273940-01,AB0127394001,266046,"NSC 266046",Oxaliplatin}

> <pdid>
PD039104

> <targets>
{}

> <classes>
{"Alkylating agent"}

> <pubchem_cids>
{25200320,24197464}

$$$$
NCI_AOD5_2014
  SciTegic11012412592D

 67 74  0  0  1  0            999 V2000
   -9.8785   -1.2799    0.0000 C   0  0
  -10.6159    0.0263    0.0000 C   0  0
   -9.8539    1.3170    0.0000 C   0  0
   -8.7906    1.7767    0.0000 C   0  0
   -7.6213    2.8080    0.0000 C   0  0  2  0  0  0
   -9.3949    5.3852    0.0000 C   0  0
   -9.0562    3.7760    0.0000 N   0  0
   -9.9666    2.2821    0.0000 C   0  0
   -7.2598    3.9925    0.0000 C   0  0
   -6.3969    4.7752    0.0000 C   0  0
   -5.0847    4.7896    0.0000 C   0  0
   -4.4469    5.9968    0.0000 N   0  0
   -5.4807    6.7939    0.0000 C   0  0
   -5.3783    7.9659    0.0000 C   0  0
   -6.4350    8.5643    0.0000 C   0  0
   -7.7902    7.7717    0.0000 C   0  0
   -7.7896    6.6020    0.0000 C   0  0
   -6.6978    6.0821    0.0000 C   0  0
   -4.6571    3.9977    0.0000 C   0  0  1  0  0  0
   -5.4925    3.1494    0.0000 C   0  0
   -3.4221    4.8504    0.0000 C   0  0
   -2.0670    4.2072    0.0000 O   0  0
   -3.5421    6.3465    0.0000 O   0  0
   -2.3077    7.1987    0.0000 C   0  0
   -4.0318    2.6323    0.0000 C   0  0
   -2.5657    2.5157    0.0000 C   0  0
   -1.9493    1.1329    0.0000 C   0  0
   -2.7823    0.0000    0.0000 C   0  0
   -4.2817    0.1000    0.0000 C   0  0
   -4.8982    1.4328    0.0000 C   0  0
   -6.3927    1.5708    0.0000 O   0  0
   -7.2597    0.3467    0.0000 C   0  0
   -1.9493   -1.2495    0.0000 N   0  0
   -2.4335   -2.6692    0.0000 C   0  0
   -0.5665   -0.7830    0.0000 C   0  0  1  0  0  0
    0.6997   -1.5161    0.0000 C   0  0  2  0  0  0
   -0.6257   -2.2184    0.0000 O   0  0
    2.0326   -0.7830    0.0000 C   0  0  2  0  0  0
    3.3301   -1.5369    0.0000 O   0  0
    3.3273   -3.0377    0.0000 C   0  0
    2.4602   -3.5358    0.0000 C   0  0
    4.6244   -3.7910    0.0000 O   0  0
    2.0326    0.6831    0.0000 C   0  0  2  0  0  0
    3.3312   -0.0685    0.0000 C   0  0
    4.1981    0.4300    0.0000 C   0  0
    3.2821    1.3995    0.0000 C   0  0
    3.2821    2.8989    0.0000 C   0  0
    1.5328    3.8485    0.0000 C   0  0
    0.4165    2.8656    0.0000 N   0  0
   -1.0329    3.0488    0.0000 C   0  0
   -1.6660    1.6994    0.0000 C   0  0
   -0.5665    0.6997    0.0000 C   0  0  2  0  0  0
    0.7331    1.4328    0.0000 C   0  0  2  0  0  0
    1.9918   -2.2373    0.0000 C   0  0
    1.9807   -3.2373    0.0000 O   0  0
    3.3001   -1.5018    0.0000 O   0  0
    4.5909   -2.2657    0.0000 C   0  0
   11.0251    4.2614    0.0000 O   0  0
   11.0251    2.7614    0.0000 C   0  0  2  0  0  0
    9.7251    2.0114    0.0000 C   0  0  1  0  0  0
    9.7251    0.5114    0.0000 O   0  0
    8.4251    2.7614    0.0000 C   0  0
    8.4251    4.2614    0.0000 O   0  0
    7.1258    2.0119    0.0000 O   0  0
   12.3251    2.0114    0.0000 C   0  0
   12.3251    0.5114    0.0000 O   0  0
   13.6244    2.7610    0.0000 O   0  0
  1  2  1  0
  2  3  1  0
  3  4  2  3
  5  4  1  6
  5  6  1  0
  6  7  1  0
  7  8  1  0
  8  3  1  0
  7  9  1  0
  9 10  1  0
 10 11  2  0
 11 12  1  0
 12 13  1  0
 13 14  2  0
 14 15  1  0
 15 16  2  0
 16 17  1  0
 17 18  2  0
 18 10  1  0
 18 13  1  0
 11 19  1  0
 19 20  1  0
 20  5  1  0
 19 21  1  6
 21 22  2  0
 21 23  1  0
 23 24  1  0
 19 25  1  0
 25 26  2  0
 26 27  1  0
 27 28  2  0
 28 29  1  0
 29 30  2  0
 30 25  1  0
 30 31  1  0
 31 32  1  0
 28 33  1  0
 33 34  1  0
 35 33  1  6
 35 36  1  0
 36 37  1  1
 36 38  1  0
 38 39  1  1
 39 40  1  0
 40 41  1  0
 40 42  2  0
 38 43  1  0
 43 44  1  6
 44 45  1  0
 43 46  1  0
 46 47  2  3
 47 48  1  0
 48 49  1  0
 49 50  1  0
 50 51  1  0
 52 51  1  1
 52 27  1  0
 52 35  1  0
 52 53  1  0
 53 43  1  0
 53 49  1  1
 36 54  1  0
 54 55  2  0
 54 56  1  0
 56 57  1  0
 59 58  1  1
 59 60  1  0
 60 61  1  1
 60 62  1  0
 62 63  1  0
 62 64  2  0
 59 65  1  0
 65 66  1  0
 65 67  2  0
M  END
> <name>
NCI_AOD5_2014

> <id>
2570

> <plate>
NCI_V5_A

> <well>
B09

> <supplier_cmpd_name>
Vinorelbine tartrate

> <ctcr_id>
3157

> <supplier_cmpd_id>
608210

> <smiles>
CCC1=C[C@@H]2CN(C1)Cc3c([nH]c4ccccc34)[C@@](C2)(C(=O)OC)c5cc6c(cc5OC)N(C)[C@H]7[C@](O)([C@H](OC(C)=O)[C@]8(CC)C=CCN9CC[C@]67[C@H]89)C(=O)OC.O[C@H]([C@@H](O)C(O)=O)C(O)=O

> <pd_targets>
.

> <pathway_gtopdb>
.

> <pathway_chembl>
.

> <pathway_reactome>
.

> <broad_targets>
.

> <broad_moa>
.

> <synonyms>
{"Navelbine ditartrate (TN)","Navelbine (TN) (GlaxoSmith)",NSC608210,NSC-608210,"NSC 608210",608210,"Vinorelbine tartrate"}

> <pdid>

> <targets>
{}

> <classes>
{Anti-mitotic}

> <pubchem_cids>
{25136944}

$$$$
NCI_AOD5_2014
  SciTegic11012412592D

 16 16  0  0  0  0            999 V2000
    3.7345   -0.7245    0.0000 O   0  0
    3.1212   -2.0934    0.0000 C   0  0
    1.6281   -2.2462    0.0000 C   0  0
    1.0142   -3.6129    0.0000 N   0  0
    1.7571   -4.9160    0.0000 C   0  0
    0.7474   -6.0252    0.0000 C   0  0
   -0.6196   -5.4077    0.0000 N   0  0
   -0.4547   -3.9168    0.0000 C   0  0
    4.0008   -3.3094    0.0000 P   0  0
    4.8794   -4.5252    0.0000 O   0  0
    3.3874   -4.6783    0.0000 O   0  0
    5.4930   -3.1567    0.0000 O   0  0
    2.2266   -0.8522    0.0000 P   0  0
    1.6415   -0.0412    0.0000 O   0  0
    1.2317   -0.9532    0.0000 O   0  0
    2.8411    0.5161    0.0000 O   0  0
  1  2  1  0
  2  3  1  0
  3  4  1  0
  4  5  1  0
  5  6  2  0
  6  7  1  0
  7  8  2  0
  8  4  1  0
  2  9  1  0
  9 10  1  0
  9 11  1  0
  9 12  2  0
  2 13  1  0
 13 14  1  0
 13 15  1  0
 13 16  2  0
M  END
> <name>
NCI_AOD5_2014

> <id>
2571

> <plate>
NCI_V5_A

> <well>
B10

> <supplier_cmpd_name>
Zoledronic acid

> <ctcr_id>
143

> <supplier_cmpd_id>
721517

> <smiles>
OC(Cn1ccnc1)([P](O)(O)=O)[P](O)(O)=O

> <pd_targets>
{FDPS,GGPS1,CA14,MMP2,CA12,CA2,BTS1,LMNA,MMP14,ISPA,BTN3A1,CA9,MMP9,MMP8}

> <pathway_gtopdb>
{Enzyme,"Other nuclear protein","Unclassified protein",Transferase,Lyase,Protease,"Metallo protease","Metallo protease MAM clan","Metallo protease M10A subfamily"}

> <pathway_chembl>
{Enzymes,"Other protein targets","Lanosterol biosynthesis pathway","Carbonic anhydrases","Peptidases and proteinases","Butyrophilin and butyrophilin-like proteins","MA: Metallo (M) Peptidases","M10: M
atrix metallopeptidase"}

> <pathway_reactome>
{Metabolism,"Developmental Biology","Transport of small molecules","Cell Cycle","Extracellular matrix organization","Immune System","Cellular responses to external stimuli","Metabolism of lipids","Rev
ersible hydration of carbon dioxide","Nervous system development","O2/CO2 exchange in erythrocytes",Mitotic,"Degradation of the extracellular matrix","Adaptive Immune System","Cellular responses to st
ress","Metabolism of steroids","Axon guidance","Erythrocytes take up carbon dioxide and release oxygen","M Phase","Activation of Matrix Metalloproteinases","Butyrophilin (BTN) family interactions","Ce
llular response to hypoxia","Regulation of cholesterol biosynthesis by SREBP (SREBF)","EPH-Ephrin signaling","Mitotic Metaphase and Anaphase","Regulation of gene expression by Hypoxia-inducible Factor
","Activation of gene expression by SREBF (SREBP)","EPH-ephrin mediated repulsion of cells","Mitotic Anaphase","Nuclear Envelope (NE) Reassembly","Initiation of Nuclear Envelope (NE) Reformation"}

> <broad_targets>
{FDPS,GGPS1}

> <broad_moa>
{"bone resorption inhibitor"}

> <synonyms>
{"Zoledronic acid",Zoledronate,118072-93-8,118072938,Zometa,Reclast,Aclasta,"(1-Hydroxy-2-(1H-imidazol-1-yl)ethane-1,1-diyl)diphosphonic acid","(1Hydroxy2(1Himidazol1yl)ethane1,1diyl)diphosphonic acid
","CGP 42446","(1-Hydroxy-2-imidazol-1-ylethylidene)diphosphonic acid","(1Hydroxy2imidazol1ylethylidene)diphosphonic acid",ZOL,CGP-42446,CGP42446,(1-hydroxy-2-(1H-imid,(1hydroxy2(1Himid,T6739,721517,"
NSC 721517","Zoledronic Acid"}

> <pdid>
PD004076

> <targets>
{}

> <classes>
{"Bone resorption inhibitor"}

> <pubchem_cids>
{68740}

$$$$
NCI_AOD5_2014
  SciTegic11012412592D

 31 34  0  0  0  0            999 V2000
    3.8983   -0.7459    0.0000 C   0  0
    2.6003   -1.4977    0.0000 O   0  0
    1.2990   -0.7500    0.0000 C   0  0
    1.2990    0.7500    0.0000 C   0  0
    0.0000    1.5000    0.0000 C   0  0
    0.0000    3.0000    0.0000 N   0  0
   -1.2991    3.7500    0.0000 C   0  0
   -2.5981    3.0000    0.0000 N   0  0
   -2.5981    1.5000    0.0000 C   0  0
   -3.8994    0.7522    0.0000 N   0  0
   -5.1981    1.5045    0.0000 C   0  0
   -6.4998    0.7590    0.0000 C   0  0
   -7.7962    1.5135    0.0000 C   0  0
   -7.7910    3.0135    0.0000 C   0  0
   -9.0875    3.7680    0.0000 F   0  0
   -6.4894    3.7590    0.0000 C   0  0
   -6.4842    5.2590    0.0000 Cl  0  0
   -5.1930    3.0045    0.0000 C   0  0
   -1.2990    0.7500    0.0000 C   0  0
   -1.2990   -0.7500    0.0000 C   0  0
    0.0000   -1.5000    0.0000 C   0  0
   -0.0031   -3.0008    0.0000 O   0  0
   -1.3039   -3.7494    0.0000 C   0  0
   -1.3070   -5.2502    0.0000 C   0  0
   -2.6078   -5.9988    0.0000 C   0  0
   -2.6109   -7.4996    0.0000 N   0  0
   -3.9099   -8.2497    0.0000 C   0  0
   -3.9099   -9.7497    0.0000 C   0  0
   -2.6109  -10.4997    0.0000 O   0  0
   -1.3119   -9.7497    0.0000 C   0  0
   -1.3118   -8.2497    0.0000 C   0  0
  1  2  1  0
  2  3  1  0
  3  4  2  0
  4  5  1  0
  5  6  2  0
  6  7  1  0
  7  8  2  0
  8  9  1  0
  9 10  1  0
 10 11  1  0
 11 12  2  0
 12 13  1  0
 13 14  2  0
 14 15  1  0
 14 16  1  0
 16 17  1  0
 16 18  2  0
 18 11  1  0
  9 19  2  0
 19  5  1  0
 19 20  1  0
 20 21  2  0
 21  3  1  0
 21 22  1  0
 22 23  1  0
 23 24  1  0
 24 25  1  0
 25 26  1  0
 26 27  1  0
 27 28  1  0
 28 29  1  0
 29 30  1  0
 30 31  1  0
 31 26  1  0
M  END
> <name>
NCI_AOD5_2014

> <id>
2572

> <plate>
NCI_V5_A

> <well>
B11

> <supplier_cmpd_name>
Gefitinib

> <ctcr_id>
6466

> <supplier_cmpd_id>
715055

> <smiles>
COc1cc2ncnc(Nc3ccc(F)c(Cl)c3)c2cc1OCCCN4CCOCC4

> <pd_targets>
{FLT3,EGFR,ERBB2,MAPK9,LCK,SLK,STK10,SBK1,RIPK2,GAK,MKNK1,NLK,HCK,SIK2,MAPK4,PRKD2,PRKD3,LIMK1,PHKG1,TNIK,CAMK2G,KIT,EPHB1,TUBA1A,CSNK1E,STK17B,PIM1,PIM3,MAP4K5,ERBB3,ERBB4,CHEK2,MKNK2,LYN,MYLK2,SRC,S
TK17A,DMPK,IRAK4,AXL,BLK,BRAF,RPS6KA4,EPHA8,TXK,KDR,ABL1,IRAK1,MAP3K3,MAP3K2,MAPK10,MAPK14,HIPK4,ABL2,NUAK2,IRAK3,RET,BACE1,PIP4K2C,DCLK3,EPHA5,CIT,MINK1,CDK7,NORA,FLT4,MET,CAMK2D,PHKG2,ABCB11,LTK,MAP
T,FRK,EPHA6,STK36,EPHA1,MAPK6,MAP3K19,MAP2K5,EPHB4,CSNK1D,DAPK3,TNK2,EPHA3,FGR,PTK6,PRKD1,EPHB6,ULK3,MAP4K4,EPHA7,BRSK1,ABCG2,ABCC4}

> <pathway_gtopdb>
{Enzyme,"Structural protein","Unclassified protein",Transporter,"Other cytosolic protein",Kinase,Protease,Transferase,"Primary active transporter","Protein Kinase","Cysteine protease","Aspartic protea
se","ATP-binding cassette","TK protein kinase group","CMGC protein kinase group","STE protein kinase group","Other protein kinase group","TKL protein kinase group","CAMK protein kinase group","Cystein
e protease CA clan","CK1 protein kinase group","AGC protein kinase group","Aspartic protease AA clan","ABCB subfamily","ABCG subfamily","ABCC subfamily","Tyrosine protein kinase PDGFR family","Tyrosin
e protein kinase EGFR family","CMGC protein kinase MAPK family","Tyrosine protein kinase Src family","STE protein kinase STE20 family","Other protein kinase NKF1 family","TKL protein kinase RIPK famil
y","Other protein kinase NAK family","CAMK protein kinase MAPKAPK family","CAMK protein kinase CAMK1 family","CAMK protein kinase PKD family","TKL protein kinase LISK family","CAMK protein kinase PHk 
family","CAMK protein kinase CAMK2 family","Tyrosine protein kinase Eph family","Cysteine protease C1A family","CK1 protein kinase CK1 family","CAMK protein kinase DAPK family","CAMK protein kinase PI
M family","CAMK protein kinase RAD53 family","CAMK protein kinase MLCK family","AGC protein kinase DMPK family","TKL protein kinase IRAK family","Tyrosine protein kinase Axl family","TKL protein kinas
e RAF family","AGC protein kinase RSK family","Tyrosine protein kinase Tec family","Tyrosine protein kinase VEGFR family","Tyrosine protein kinase Abl family","STE protein kinase STE11 family","CMGC p
rotein kinase DYRK family","Tyrosine protein kinase Ret family","Aspartic protease A1A subfamily","CAMK protein kinase DCAMK1 family","CMGC protein kinase CDK family","Tyrosine protein kinase Met fami
ly","Tyrosine protein kinase Alk family","Other protein kinase ULK family","STE protein kinase STE7 family","Tyrosine protein kinase Ack family","CMGC protein kinase JNK subfamily","STE protein kinase
 SLK subfamily","CAMK protein kinase MNK subfamily","CMGC protein kinase nmo subfamily","CAMK protein kinase QIK subfamily","CMGC protein kinase ERK3","TKL protein kinase LIMK subfamily","STE protein 
kinase MSN subfamily","STE protein kinase KHS subfamily","AGC protein kinase GEK subfamily","AGC protein kinase MSK subfamily","STE protein kinase MEKK2","CMGC protein kinase p38 subfamily","CMGC prot
ein kinase HIPK subfamily","CAMK protein kinase NuaK subfamily","AGC protein kinase CRIK subfamily","CMGC protein kinase CDK7 subfamily","CAMK protein kinase BRSK subfamily"}

> <pathway_chembl>
{Receptors,Enzymes,"Other protein targets",Transporters,"Catalytic receptors","Kinases (EC 2.7.x.x)",Tubulins,"Peptidases and proteinases","ATP-binding cassette transporter family","Receptor kinases",
"CMGC: Containing CDK",MAPK,GSK3,"CLK families","STE: Homologs of yeast Sterile 7","Sterile 11","Sterile 20 kinases","CAMK: Calcium/calmodulin-dependent protein kinases","CK1: Casein kinase 1","AGC: C
ontaining PKA",PKG,"PKC families","AA: Aspartic (A) Peptidases","Lipid modifying kinases","ABCB subfamily","ABCG subfamily","ABCC subfamily","TK: Tyrosine kinase","Mitogen-activated protein kinases (M
AP kinases)","STE20 family","Other protein kinases","TKL: Tyrosine kinase-like","MAPK-Activated Protein Kinase (MAPKAPK) family","CAMK-like (CAMKL) family","Protein kinase D (PKD) family","Phosphoryla
se kinase (PHK) family","CAMK2 family","Casein kinase 1 (CK1) family","Death-associated kinase (DAPK) family","PIM family","Myosin Light Chain Kinase (MLCK) family","DMPK family","RSK family","STE11 f
amily","Dual-specificity tyrosine-(Y)-phosphorylation regulated kinase (DYRK) family","A1: Pepsin","Type II PIP kinases (1-phosphatidylinositol-5-phosphate 4-kinase family)","DCAMKL family","Cyclin-de
pendent kinase (CDK) family","STE7 family","Receptor tyrosine kinases (RTKs)","JNK subfamily","Non-receptor tyrosine kinases (nRTKs)","SLK subfamily","NKF1 family","Receptor interacting protein kinase
 (RIPK) family","Numb-associated kinase (NAK) family","MKN subfamily","nmo subfamily","QIK subfamily","ERK subfamily","LIM domain kinase (LISK) family","MSN subfamily","KHS subfamily","CHK1 subfamily"
,"GEK subfamily","Interleukin-1 receptor-associated kinase (IRAK) family","RAF family","MSK subfamily","p38 subfamily","HIPK subfamily","NuaK subfamily","Other DMPK family kinases","CDK7 subfamily","U
nc-51-like kinase (ULK) family","STE20 subfamily","BRSK subfamily","Type III RTKs: PDGFR",CSFR,Kit,"FLT3 receptor family","Type I RTKs: ErbB (epidermal growth factor) receptor family","Src family","LI
MK subfamily","Type XIII RTKs: Ephrin receptor family","Type XI RTKs: TAM (TYRO3-","AXL- and MER-TK) receptor family","Tec family","Type IV RTKs: VEGF (vascular endothelial growth factor) receptor fam
ily","Abl family","Type XIV RTKs: RET","Type X RTKs: HGF (hepatocyte growth factor) receptor family","Type XIX RTKs: Leukocyte tyrosine kinase (LTK) receptor family","Ack family"}

> <pathway_reactome>
{"Signal Transduction","Developmental Biology","Immune System",Disease,"Vesicle-mediated transport",Metabolism,"Cellular responses to external stimuli","Neuronal System","Cell Cycle","Gene expression 
(Transcription)","Muscle contraction","Metabolism of proteins","Programmed Cell Death",Hemostasis,"Signaling by Receptor Tyrosine Kinases","Signaling by GPCR","Nervous system development","Innate Immu
ne System","Infectious disease","Membrane Trafficking","Signaling by WNT","MAPK family signaling cascades","Metabolism of lipids","Metabolism of carbohydrates","Cellular responses to stress","Transmis
sion across Chemical Synapses","Diseases of signal transduction by growth factor receptors and second messengers",Mitotic,"RNA Polymerase II Transcription","Cardiac conduction","Cytokine Signaling in 
Immune system","Amyloid fiber formation","Signaling by Rho GTPases","Intracellular signaling by second messengers",Apoptosis,"Signaling by Hedgehog","Abacavir transport and metabolism","Platelet activ
ation","signaling and aggregation","Signaling by Insulin receptor","GPCR downstream signalling","Axon guidance","Toll-like Receptor Cascades","HIV Infection","Neutrophil degranulation","trans-Golgi Ne
twork Vesicle Budding","Signaling by FGFR","Beta-catenin independent WNT signaling","MAPK6/MAPK4 signaling","Sphingolipid metabolism","Glycogen metabolism","Cellular Senescence","Neurotransmitter rece
ptors and postsynaptic signal transmission","Signaling by KIT in disease","Mitotic G2-G2/M phases","FLT3 signaling in disease","Generic Transcription Pathway","Leishmania infection","Signaling by NTRK
s","Ion homeostasis","Signaling by VEGF","Fc epsilon receptor (FCERI) signaling","Signaling by Interleukins","RHO GTPase Effectors","Metabolism of steroids","PIP3 activates AKT signaling","Caspase act
ivation via extrinsic apoptotic signalling pathway","Mitotic G1 phase and G1/S transition","Hedgehog 'on' state","Abacavir transmembrane transport","Response to elevated platelet cytosolic Ca2+","Insu
lin receptor signalling cascade","G alpha (q) signalling events","Semaphorin interactions","Toll Like Receptor 5 (TLR5) Cascade","Host Interactions of HIV factors","Golgi Associated Vesicle Biogenesis
","Signaling by FGFR4","Ca2+ pathway","Sphingolipid de novo biosynthesis","Glycogen breakdown (glycogenolysis)","Oxidative Stress Induced Senescence","Activation of NMDA receptors and postsynaptic eve
nts","Drug resistance of KIT mutants","EPH-Ephrin signaling","G2/M Transition","Signaling by FLT3 ITD and TKD mutants","Transcriptional Regulation by TP53","Leishmania parasite growth and survival","S
ignaling by NTRK1 (TRKA)","Toll Like Receptor 2 (TLR2) Cascade","VEGFA-VEGFR2 Pathway","Transcriptional regulation by RUNX1","L1CAM interactions","FCERI mediated Ca+2 mobilization","Parasite infection
","Interleukin-1 family signaling","Signaling by ROBO receptors","RET signaling","RHO GTPases activate CIT","HIV Life Cycle","VEGF ligand-receptor interactions","Bile acid and bile salt metabolism","P
TEN Regulation","Caspase activation via Dependence Receptors in the absence of ligand","Negative regulation of the PI3K/AKT network","G1 Phase","Platelet degranulation","IRS-mediated signalling","Gast
rin-CREB signalling pathway via PKC and MAPK","Sema4D in semaphorin signaling","MyD88 cascade initiated on plasma membrane","The role of Nef in HIV-1 replication and disease pathogenesis","Negative re
gulation of FGFR4 signaling","Post NMDA receptor activation events","Dasatinib-resistant KIT mutants","EPHB-mediated forward signaling","Centrosome maturation","STAT5 activation downstream of FLT3 ITD
 mutants","Regulation of TP53 Activity","Anti-inflammatory response favouring Leishmania parasite infection","Signalling to ERKs","Toll Like Receptor TLR6:TLR2 Cascade","RUNX1 regulates transcription 
of genes involved in BCR signaling","Recycling pathway of L1","EPHA-mediated growth cone collapse","VEGFR2 mediated cell proliferation","Leishmania phagocytosis","Interleukin-1 signaling","Role of ABL
 in ROBO-SLIT signaling","Late Phase of HIV Life Cycle","VEGF binds to VEGFR leading to receptor dimerization","Synthesis of bile acids and bile salts","Regulation of PTEN stability and activity","Sig
nalling to ERK5",PI5P,"PP2A and IER3 Regulate PI3K/AKT Signaling","Cyclin D associated events in G1","PI3K Cascade","EGFR Transactivation by Gastrin","Sema4D induced cell migration and growth-cone col
lapse","MAP kinase activation","Nef-mediates down modulation of cell surface receptors by recruiting them to clathrin adapters","Spry regulation of FGF signaling","Nef and signal transduction","CREB1 
phosphorylation through NMDA receptor-mediated activation of RAS signaling","Loss of proteins required for interphase microtubule organization from the centrosome","Regulation of TP53 Expression and D
egradation","FCGR3A-mediated IL10 synthesis","Signalling to RAS","MyD88:MAL(TIRAP) cascade initiated on plasma membrane","Prolonged ERK activation events","Long-term potentiation","FCGR3A-mediated pha
gocytosis","Regulation of TP53 Activity through Acetylation","Transcription of the HIV genome","Sema4D mediated inhibition of cell attachment and migration","Synthesis of bile acids and bile salts via
 7alpha-hydroxycholesterol","Activation of AMPK downstream of NMDARs","MAPK targets/ Nuclear events mediated by MAP kinases","Nef Mediated CD4 Down-regulation","activated TAK1 mediates p38 MAPK activa
tion","Ras activation upon Ca2+ influx through NMDA receptor","Loss of Nlp from mitotic centrosomes","Regulation of TP53 Degradation","p38MAPK events","ARMS-mediated activation","PI5P Regulates TP53 A
cetylation","HIV Transcription Elongation","Activation of the AP-1 family of transcription factors","Tat-mediated elongation of the HIV-1 transcript","Formation of HIV-1 elongation complex containing 
HIV-1 Tat"}

> <broad_targets>
{EGFR}

> <broad_moa>
{"EGFR inhibitor"}

> <synonyms>
{15215-EP2298768A1,15215EP2298768A1,Gefitinib,184475-35-2,184475352,Iressa,ZD1839,Irressat,"gefitinib (zd1839)","ZD 1839",ZD-1839,UNII-S65743JHBS,UNIIS65743JHBS,4-(3'-Chloro-4'-fluoroanilino)-7-methox
y-6-(3-morpholinopropoxy)quinazoline,4(3'Chloro4'fluoroanilino)7methoxy6(3morpholinopropoxy)quinazoline,MFCD04307832,CHEMBL939,S65743JHBS,CHEBI:49668,NC,T1181,715055,S1025,3000,Prestw-1270,"NSC 715055
",gefitinib,Gefitinib(Iressa),"Gefitinib (ZD1839)",GEFITINIB}

> <pdid>
PD003385

> <targets>
{EGFR(HER),EGFR}

> <classes>
{"Tyrosine kinase inhibitor","Protein Tyrosine Kinase"}

> <pubchem_cids>
{123631}

$$$$
NCI_AOD5_2014
  SciTegic11012412592D

 37 41  0  0  0  0            999 V2000
    3.8983   -0.7459    0.0000 C   0  0
    2.6003   -1.4977    0.0000 O   0  0
    1.2990   -0.7500    0.0000 C   0  0
    1.2990    0.7500    0.0000 C   0  0
    0.0000    1.5000    0.0000 C   0  0
    0.0000    3.0000    0.0000 N   0  0
   -1.2991    3.7500    0.0000 C   0  0
   -2.5981    3.0000    0.0000 C   0  0
   -2.5981    1.5000    0.0000 C   0  0
   -3.8994    0.7522    0.0000 O   0  0
   -5.1981    1.5045    0.0000 C   0  0
   -6.4998    0.7590    0.0000 C   0  0
   -7.7962    1.5135    0.0000 C   0  0
   -7.7910    3.0135    0.0000 C   0  0
   -9.0866    3.7711    0.0000 N   0  0
   -9.0793    5.2719    0.0000 C   0  0
   -7.7764    6.0151    0.0000 O   0  0
  -10.3749    6.0295    0.0000 C   0  0
  -11.7592    6.1035    0.0000 C   0  0
  -11.0161    4.8004    0.0000 C   0  0
  -10.3671    7.5307    0.0000 C   0  0
   -9.0640    8.2735    0.0000 O   0  0
  -11.6625    8.2886    0.0000 N   0  0
  -11.6547    9.7894    0.0000 C   0  0
  -12.9483   10.5489    0.0000 C   0  0
  -12.9374   12.0489    0.0000 C   0  0
  -11.6330   12.7894    0.0000 C   0  0
  -11.6222   14.2894    0.0000 F   0  0
  -10.3394   12.0301    0.0000 C   0  0
  -10.3502   10.5301    0.0000 C   0  0
   -6.4894    3.7590    0.0000 C   0  0
   -5.1930    3.0045    0.0000 C   0  0
   -1.2990    0.7500    0.0000 C   0  0
   -1.2990   -0.7500    0.0000 C   0  0
    0.0000   -1.5000    0.0000 C   0  0
   -0.0031   -3.0008    0.0000 O   0  0
   -1.3032   -3.7490    0.0000 C   0  0
  1  2  1  0
  2  3  1  0
  3  4  2  0
  4  5  1  0
  5  6  2  0
  6  7  1  0
  7  8  2  0
  8  9  1  0
  9 10  1  0
 10 11  1  0
 11 12  2  0
 12 13  1  0
 13 14  2  0
 14 15  1  0
 15 16  1  0
 16 17  2  0
 16 18  1  0
 18 19  1  0
 19 20  1  0
 20 18  1  0
 18 21  1  0
 21 22  2  0
 21 23  1  0
 23 24  1  0
 24 25  2  0
 25 26  1  0
 26 27  2  0
 27 28  1  0
 27 29  1  0
 29 30  2  0
 30 24  1  0
 14 31  1  0
 31 32  2  0
 32 11  1  0
  9 33  2  0
 33  5  1  0
 33 34  1  0
 34 35  2  0
 35  3  1  0
 35 36  1  0
 36 37  1  0
M  END
> <name>
NCI_AOD5_2014

> <id>
2573

> <plate>
NCI_V5_A

> <well>
C02

> <supplier_cmpd_name>
Cabozantinib

> <ctcr_id>
3519

> <supplier_cmpd_id>
Cabozantinib

> <smiles>
COc1cc2nccc(Oc3ccc(NC(=O)C4(CC4)C(=O)Nc5ccc(F)cc5)cc3)c2cc1OC

> <pd_targets>
{MST1R,MET,KDR,RET,KIT,FLT3,TEK,EGFR,FLT1,AXL,SRC,FGFR1,AURKA,FLT4,KIF5B,CCDC6}

> <pathway_gtopdb>
{Enzyme,Kinase,"Protein Kinase","TK protein kinase group","Other protein kinase group","Tyrosine protein kinase Met family","Tyrosine protein kinase VEGFR family","Tyrosine protein kinase Ret family",
"Tyrosine protein kinase PDGFR family","Tyrosine protein kinase Tie family","Tyrosine protein kinase EGFR family","Tyrosine protein kinase Axl family","Tyrosine protein kinase Src family","Tyrosine pr
otein kinase FGFR family","Other protein kinase AUR family"}

> <pathway_chembl>
{Receptors,"Catalytic receptors","Receptor kinases","TK: Tyrosine kinase","Other protein kinases","Receptor tyrosine kinases (RTKs)","Non-receptor tyrosine kinases (nRTKs)","Aurora kinase (Aur) family
","Type X RTKs: HGF (hepatocyte growth factor) receptor family","Type IV RTKs: VEGF (vascular endothelial growth factor) receptor family","Type XIV RTKs: RET","Type III RTKs: PDGFR",CSFR,Kit,"FLT3 rec
eptor family","Type XII RTKs: TIE family of angiopoietin receptors","Type I RTKs: ErbB (epidermal growth factor) receptor family","Type XI RTKs: TAM (TYRO3-","AXL- and MER-TK) receptor family","Src fa
mily","Type V RTKs: FGF (fibroblast growth factor) receptor family"}

> <pathway_reactome>
{"Signal Transduction","Developmental Biology",Disease,"Gene expression (Transcription)","Signaling by Receptor Tyrosine Kinases","Nervous system development","Diseases of signal transduction by growt
h factor receptors and second messengers","MAPK family signaling cascades","Signaling by GPCR","RNA Polymerase II Transcription","Signaling by MST1","Axon guidance","Signaling by VEGF","Signaling by K
IT in disease","Signaling by Insulin receptor","MAPK1/MAPK3 signaling","GPCR downstream signalling","Signaling by NTRKs","Signaling by FGFR in disease","Generic Transcription Pathway","Semaphorin inte
ractions","VEGFA-VEGFR2 Pathway","RET signaling","Drug resistance of KIT mutants","Insulin receptor signalling cascade","RAF/MAP kinase cascade","G alpha (q) signalling events","VEGF ligand-receptor i
nteractions","Signaling by NTRK1 (TRKA)","Signaling by FGFR1 in disease","Transcriptional Regulation by TP53","Sema4D in semaphorin signaling","VEGFR2 mediated cell proliferation","Dasatinib-resistant
 KIT mutants","IRS-mediated signalling","Gastrin-CREB signalling pathway via PKC and MAPK","VEGF binds to VEGFR leading to receptor dimerization","Signalling to ERKs","FGFR1 mutant receptor activation
","Regulation of TP53 Activity","Sema4D mediated inhibition of cell attachment and migration","PI3K Cascade","EGFR Transactivation by Gastrin","Signalling to RAS","Signaling by activated point mutants
 of FGFR1","Regulation of TP53 Activity through Phosphorylation","p38MAPK events"}

> <broad_targets>
{KDR,MET,RET}

> <broad_moa>
{"RET tyrosine kinase inhibitor","VEGFR inhibitor"}

> <synonyms>
{SB20062,Cabozantinib,849217-68-1,849217681,Cometriq,XL184,XL-184,BMS-907351,BMS907351,"XL 184","BMS 907351","Cabozantinib (XL184, BMS-907351)","Cabozantinib (XL184, BMS907351)",UNII-1C39JW444G,UNII1C
39JW444G,CHEBI:72317,"XL-184 free base","XL184 free base",1C39JW444G,MFCD20926324,"Cabometyx (TN)","Cometriq (TN)",Cabo,T2586,T5164,761068,S1119,"Cabozantinib hydrochloride (849217-68-1(free base))",c
abozantinib}

> <pdid>
PD003215

> <targets>
{VEGFR,c-Kit,Tie-2,Axl,FLT3,c-Met,Apoptosis,c-Met/HGFR,TAM Receptor}

> <classes>
{Tyrosine kinase inhibitor,Protein Tyrosine Kinase,Apoptosis,Protein Tyrosine Kinase/RTK}

> <pubchem_cids>
{25102847}

$$$$
NCI_AOD5_2014
  SciTegic11012412592D

 35 37  0  0  1  0            999 V2000
    2.5981   -1.5000    0.0000 N   0  0
    1.2990   -0.7500    0.0000 C   0  0
    1.2990    0.7500    0.0000 N   0  0
    0.0000    1.5000    0.0000 C   0  0
    0.0000    3.0000    0.0000 N   0  0
   -1.2990    0.7500    0.0000 C   0  0
   -2.5981    1.5000    0.0000 N   0  0
   -3.8971    0.7500    0.0000 C   0  0
   -5.1984    1.4977    0.0000 C   0  0
   -6.4971    0.7454    0.0000 C   0  0
   -6.4914   -0.7554    0.0000 C   0  0
   -5.1893   -1.5017    0.0000 C   0  0
   -3.8879   -2.2475    0.0000 C   0  0
   -7.7984    1.4932    0.0000 C   0  0
   -9.0975    0.7432    0.0000 C   0  0
  -10.3966    1.4932    0.0000 C   0  0
  -10.3966    2.9932    0.0000 C   0  0
   -9.0976    3.7432    0.0000 C   0  0
   -7.7985    2.9932    0.0000 C   0  0
  -11.6948    3.7462    0.0000 C   0  0
  -12.9952    2.9984    0.0000 O   0  0
  -11.6927    5.2470    0.0000 N   0  0
  -12.9910    6.0001    0.0000 C   0  0  1  0  0  0
  -12.9889    7.5009    0.0000 C   0  0
  -14.2871    8.2539    0.0000 C   0  0
  -14.2850    9.7548    0.0000 C   0  0
  -12.9847   10.5025    0.0000 O   0  0
  -15.5825   10.5074    0.0000 O   0  0
  -14.2936    5.2546    0.0000 C   0  0
  -14.2987    3.7546    0.0000 O   0  0
  -15.5902    6.0086    0.0000 O   0  0
   -3.8971   -0.7500    0.0000 C   0  0
   -2.5981   -1.5000    0.0000 N   0  0
   -1.2990   -0.7500    0.0000 C   0  0
    0.0000   -1.5000    0.0000 N   0  0
  1  2  1  0
  2  3  2  0
  3  4  1  0
  4  5  1  0
  4  6  2  0
  6  7  1  0
  7  8  2  0
  8  9  1  0
  9 10  1  0
 10 11  1  0
 11 12  1  0
 12 13  3  0
 10 14  1  0
 14 15  2  0
 15 16  1  0
 16 17  2  0
 17 18  1  0
 18 19  2  0
 19 14  1  0
 17 20  1  0
 20 21  2  0
 20 22  1  0
 23 22  1  6
 23 24  1  0
 24 25  1  0
 25 26  1  0
 26 27  1  0
 26 28  2  0
 23 29  1  0
 29 30  1  0
 29 31  2  0
  8 32  1  0
 32 33  2  0
 33 34  1  0
 34  6  1  0
 34 35  2  0
 35  2  1  0
M  END
> <name>
NCI_AOD5_2014

> <id>
2574

> <plate>
NCI_V5_A

> <well>
C03

> <supplier_cmpd_name>
Pralatrexate

> <ctcr_id>
1418

> <supplier_cmpd_id>
754230

> <smiles>
Nc1nc(N)c2nc(CC(CC#C)c3ccc(cc3)C(=O)N[C@@H](CCC(O)=O)C(O)=O)cnc2n1

> <pd_targets>
{DHFR,FOLR1,SLC19A1,SLC46A1,TYMS}

> <pathway_gtopdb>
{Enzyme,"Membrane receptor",Transporter,Oxidoreductase,"Electrochemical transporter",Transferase,"SLC superfamily of solute carriers","SLC19 family of vitamin transporters","SLC46 family of folate tra
nsporters"}

> <pathway_chembl>
{Enzymes,Transporters,"1.-.-.- Oxidoreductases","SLC superfamily of solute carriers","2.1.1.- Methyltransferases","SLC19 family of vitamin transporters","SLC46 family of folate transporters"}

> <pathway_reactome>
{"Cell Cycle","Metabolism of proteins",Metabolism,Mitotic,"Post-translational protein modification","Metabolism of vitamins and cofactors","Mitotic G1 phase and G1/S transition","Asparagine N-linked g
lycosylation","Metabolism of water-soluble vitamins and cofactors","G1/S Transition","Transport to the Golgi and subsequent modification","Metabolism of folate and pterines","G1/S-Specific Transcripti
on","ER to Golgi Anterograde Transport","Cargo concentration in the ER"}

> <broad_targets>
{DHFR}

> <broad_moa>
{"dihydrofolate reductase inhibitor"}

> <synonyms>
{Pralatrexate,146464-95-1,146464951,Folotyn,10-Propargyl-10-deazaaminopterin,10Propargyl10deazaaminopterin,Pralatrexate(Folotyn),"HSDB 7786",PDX,CHEBI:71223,"146464-95-1 (racemic)","146464951 (racemic
)",NCGC00242596-01,NCGC0024259601,"N-(4-(1-(2,4-diaminopteridin-6-yl)pent-4-yn-2-yl)benzoyl)-L-glutamic acid","N(4(1(2,4diaminopteridin6yl)pent4yn2yl)benzoyl)Lglutamic acid","Folotyn (",T6120,754230,"
NSC 754230",pralatrexate}

> <pdid>
PD004103

> <targets>
{Antifolate,Apoptosis}

> <classes>
{Anti-metabolite,Apoptosis,Cell Cycle/DNA Damage}

> <pubchem_cids>
{148121}

$$$$
NCI_AOD5_2014
  SciTegic11012412592D

 39 43  0  0  1  0            999 V2000
    9.2971    4.6579    0.0000 C   0  0
    8.0391    3.8409    0.0000 O   0  0
    8.1168    2.3421    0.0000 C   0  0
    9.4532    1.6608    0.0000 O   0  0
    6.8582    1.5246    0.0000 C   0  0
    6.9359    0.0258    0.0000 C   0  0  2  0  0  0
    5.5999    0.7078    0.0000 O   0  0
    8.2730   -0.6559    0.0000 C   0  0
    9.5324    0.1605    0.0000 C   0  0
   10.8695   -0.5212    0.0000 C   0  0
   12.1289    0.2951    0.0000 C   0  0
   13.3872    1.1116    0.0000 C   0  0
   12.0512    1.7931    0.0000 C   0  0
   13.4653   -0.3862    0.0000 O   0  0
    5.6765   -0.7905    0.0000 C   0  0
    5.7542   -2.2885    0.0000 O   0  0
    4.3394   -0.1088    0.0000 O   0  0
    3.0821   -0.9238    0.0000 C   0  0  1  0  0  0
    1.6852   -0.3846    0.0000 C   0  0  1  0  0  0
    1.3514    1.0778    0.0000 C   0  0
    2.5913    1.9239    0.0000 C   0  0
    2.4792    3.4197    0.0000 C   0  0
    3.5155    4.5031    0.0000 O   0  0
    2.8046    5.8240    0.0000 C   0  0
    1.3287    5.5562    0.0000 O   0  0
    1.1278    4.0705    0.0000 C   0  0
   -0.1116    3.2255    0.0000 C   0  0
    0.0000    1.7286    0.0000 C   0  0
   -1.3515    1.0777    0.0000 C   0  0
   -1.6852   -0.3847    0.0000 C   0  0
   -0.7500   -1.5574    0.0000 N   0  0
   -1.2172   -2.9891    0.0000 C   0  0
   -0.0039   -3.8711    0.0000 C   0  0
    1.2099   -2.9897    0.0000 C   0  0
    0.7500   -1.5574    0.0000 C   0  0  2  0  0  0
    1.5613   -2.8152    0.0000 C   0  0
    3.0088   -2.4220    0.0000 C   0  0
    4.1745   -3.3632    0.0000 O   0  0
    3.9429   -4.8452    0.0000 C   0  0
  1  2  1  0
  2  3  1  0
  3  4  2  0
  3  5  1  0
  5  6  1  0
  6  7  1  1
  6  8  1  0
  8  9  1  0
  9 10  1  0
 10 11  1  0
 11 12  1  0
 11 13  1  0
 11 14  1  0
  6 15  1  0
 15 16  2  0
 15 17  1  0
 18 17  1  6
 18 19  1  0
 19 20  1  6
 20 21  2  0
 21 22  1  0
 22 23  1  0
 23 24  1  0
 24 25  1  0
 25 26  1  0
 26 22  2  0
 26 27  1  0
 27 28  2  0
 28 20  1  0
 28 29  1  0
 29 30  1  0
 30 31  1  0
 31 32  1  0
 32 33  1  0
 33 34  1  0
 35 34  1  1
 35 19  1  0
 35 31  1  0
 35 36  1  0
 36 37  2  3
 37 18  1  0
 37 38  1  0
 38 39  1  0
M  END
> <name>
NCI_AOD5_2014

> <id>
2575

> <plate>
NCI_V5_A

> <well>
C04

> <supplier_cmpd_name>
Omacetaxine mepesuccinate

> <ctcr_id>
4036

> <supplier_cmpd_id>
Omacetaxine mepesuccinate

> <smiles>
COC(=O)C[C@](O)(CCCC(C)(C)O)C(=O)O[C@H]1[C@H]2c3cc4OCOc4cc3CCN5CCC[C@]25C=C1OC

> <pd_targets>
{RPL3,HTT,RORC,LEF,CYP3A4}

> <pathway_gtopdb>
{"Unclassified protein","Transcription factor",Enzyme,"Nuclear receptor",Protease,"Cytochrome P450","Nuclear hormone receptor subfamily 1","Metallo protease","Cytochrome P450 family 3","Nuclear hormon
e receptor subfamily 1 group F","Metallo protease MAE clan","Cytochrome P450 family 3A","Nuclear hormone receptor subfamily 1 group F member 3","Metallo protease M34 family","Cytochrome P450 3A4"}

> <pathway_chembl>
{Receptors,Enzymes,"Nuclear hormone receptors","Cytochrome P450","1F. Retinoic acid-related orphans","CYP3 family"}

> <pathway_reactome>
{"Developmental Biology","Nervous system development","Axon guidance","Signaling by ROBO receptors","Regulation of expression of SLITs and ROBOs","Gene expression (Transcription)",Disease,Metabolism,"
RNA Polymerase II Transcription","Infectious disease","Metabolism of lipids","Generic Transcription Pathway","Uptake and actions of bacterial toxins","Biosynthesis of specialized proresolving mediator
s (SPMs)","Transcriptional Regulation by MECP2","Transcriptional regulation by RUNX3","Uptake and function of anthrax toxins","Biosynthesis of DHA-derived SPMs","Regulation of MECP2 expression and act
ivity","RUNX3 Regulates Immune Response and Cell Migration","Biosynthesis of maresins","Biosynthesis of maresin-like SPMs"}

> <broad_targets>
{RPL3}

> <broad_moa>
{"protein synthesis inhibitor"}

> <synonyms>
{homoharringtonine,"Omacetaxine mepesuccinate",Synribo,26833-87-4,26833874,Ceflatonin,Myelostat,CGX-635,CGX635,(-)-homoharringtonine,()homoharringtonine,Omapro,NSC-141633,NSC141633,UNII-6FG8041S5B,UNI
I6FG8041S5B,CHEBI:71019,C29H39NO9,"(2'R,3S,4S,5R)-(-)-homoharringtonine","(2'R,3S,4S,5R)()homoharringtonine",6FG8041S5B,NSC,T3380,758253,1416,SAM001246822,Homoharringtonine,CPD000469230}

> <pdid>
PD003333

> <targets>
{STAT3,STAT}

> <classes>
{Protein synthesis inhibitor,JAK/STAT Signaling,Stem Cell/Wnt}

> <pubchem_cids>
{285033}

$$$$
NCI_AOD5_2014
  SciTegic11012412592D

 31 33  0  0  1  0            999 V2000
    2.5981   -1.5000    0.0000 N   0  0
    1.2990   -0.7500    0.0000 C   0  0
    1.2990    0.7500    0.0000 N   0  0
    0.0000    1.5000    0.0000 C   0  0
   -0.3115    2.9665    0.0000 N   0  0
   -1.8032    3.1233    0.0000 C   0  0
   -2.4133    1.7530    0.0000 C   0  0
   -3.8794    1.4442    0.0000 C   0  0
   -4.8823    2.5608    0.0000 C   0  0
   -6.3509    2.2515    0.0000 C   0  0
   -7.3549    3.3660    0.0000 C   0  0
   -8.8221    3.0539    0.0000 C   0  0
   -9.2853    1.6272    0.0000 C   0  0
   -8.2815    0.5127    0.0000 C   0  0
   -6.8143    0.8248    0.0000 C   0  0
  -10.7527    1.3119    0.0000 C   0  0
  -11.7585    2.4247    0.0000 O   0  0
  -11.2142   -0.1162    0.0000 N   0  0
  -12.6815   -0.4315    0.0000 C   0  0  1  0  0  0
  -13.1430   -1.8596    0.0000 C   0  0
  -14.6104   -2.1749    0.0000 C   0  0
  -15.0719   -3.6030    0.0000 C   0  0
  -14.0661   -4.7158    0.0000 O   0  0
  -16.5384   -3.9181    0.0000 O   0  0
  -13.6902    0.6798    0.0000 C   0  0
  -13.2319    2.1081    0.0000 O   0  0
  -15.1564    0.3631    0.0000 O   0  0
   -1.2990    0.7500    0.0000 C   0  0
   -1.2990   -0.7500    0.0000 C   0  0
   -2.5981   -1.5000    0.0000 O   0  0
    0.0000   -1.5000    0.0000 N   0  0
  1  2  1  0
  2  3  2  3
  3  4  1  0
  4  5  1  0
  5  6  1  0
  6  7  2  0
  7  8  1  0
  8  9  1  0
  9 10  1  0
 10 11  2  0
 11 12  1  0
 12 13  2  0
 13 14  1  0
 14 15  2  0
 15 10  1  0
 13 16  1  0
 16 17  2  0
 16 18  1  0
 19 18  1  1
 19 20  1  0
 20 21  1  0
 21 22  1  0
 22 23  1  0
 22 24  2  0
 19 25  1  0
 25 26  1  0
 25 27  2  0
  7 28  1  0
 28  4  2  0
 28 29  1  0
 29 30  2  0
 29 31  1  0
 31  2  1  0
M  END
> <name>
NCI_AOD5_2014

> <id>
2576

> <plate>
NCI_V5_A

> <well>
C05

> <supplier_cmpd_name>
Pemetrexed

> <ctcr_id>
5317

> <supplier_cmpd_id>
698037

> <smiles>
NC1=Nc2[nH]cc(CCc3ccc(cc3)C(=O)N[C@@H](CCC(O)=O)C(O)=O)c2C(=O)N1

> <pd_targets>
.

> <pathway_gtopdb>
.

> <pathway_chembl>
.

> <pathway_reactome>
.

> <broad_targets>
.

> <broad_moa>
.

> <synonyms>
{"NSC 698037",698037,Pemetrexed,"Pemetrexed Disodium"}

> <pdid>

> <targets>
{}

> <classes>
{"dihydrofolate reductase inhibitor"}

> <pubchem_cids>
{446556}

$$$$
NCI_AOD5_2014
  SciTegic11012412592D

 32 35  0  0  1  0            999 V2000
    5.0987   -5.2852    0.0000 Cl  0  5
    2.5228   -3.0436    0.0000 C   0  0
    1.2626   -2.2300    0.0000 C   0  0
    1.2990   -0.7500    0.0000 C   0  0  1  0  0  0
    2.5793    0.0316    0.0000 O   0  0
    1.2990    0.7500    0.0000 C   0  0
    2.5981    1.5000    0.0000 O   0  0
    0.0000    1.5000    0.0000 O   0  0
   -1.2990    0.7500    0.0000 C   0  0
   -1.2990   -0.7500    0.0000 C   0  0
    0.0000   -1.5000    0.0000 C   0  0
    0.0000   -3.0000    0.0000 C   0  0
   -1.2990   -3.7500    0.0000 C   0  0
   -2.5981   -3.0000    0.0000 N   0  0
   -3.7124   -4.0030    0.0000 C   0  0
   -3.1022   -5.3733    0.0000 C   0  0
   -3.7125   -6.7424    0.0000 C   0  0
   -2.8308   -7.9559    0.0000 C   0  0
   -3.4409   -9.3262    0.0000 C   0  0
   -4.9332   -9.4862    0.0000 C   0  0
   -5.5417  -10.8581    0.0000 N   0  0
   -7.0331  -11.0180    0.0000 C   0  0
   -4.6579  -12.0701    0.0000 C   0  0
   -2.5592  -10.5397    0.0000 C   0  0
   -3.1693  -11.9101    0.0000 O   0  0
   -1.0674  -10.3829    0.0000 C   0  0
   -0.4573   -9.0126    0.0000 C   0  0
   -1.3390   -7.7991    0.0000 C   0  0
   -0.7289   -6.4288    0.0000 N   0  3
   -1.6105   -5.2165    0.0000 C   0  0
   -2.5981   -1.5000    0.0000 C   0  0
   -3.8971   -0.7500    0.0000 O   0  0
  2  3  1  0
  3  4  1  0
  4  5  1  1
  4  6  1  0
  6  7  2  0
  6  8  1  0
  8  9  1  0
  9 10  1  0
 10 11  2  3
 11  4  1  0
 11 12  1  0
 12 13  2  3
 13 14  1  0
 14 15  1  0
 15 16  1  0
 16 17  2  0
 17 18  1  0
 18 19  2  0
 19 20  1  0
 20 21  1  0
 21 22  1  0
 21 23  1  0
 19 24  1  0
 24 25  1  0
 24 26  2  0
 26 27  1  0
 27 28  2  0
 28 18  1  0
 28 29  1  0
 29 30  2  0
 30 13  1  0
 30 16  1  0
 14 31  1  0
 31 10  1  0
 31 32  2  0
M  CHG  2   1  -1  29   1
M  END
> <name>
NCI_AOD5_2014

> <id>
2577

> <plate>
NCI_V5_A

> <well>
C06

> <supplier_cmpd_name>
Topotecan hydrochloride

> <ctcr_id>
4742

> <supplier_cmpd_id>
609699

> <smiles>
[Cl-].CC[C@@]1(O)C(=O)OCC2=C1C=C3N(Cc4cc5c(CN(C)C)c(O)ccc5[nH+]c34)C2=O

> <pd_targets>
.

> <pathway_gtopdb>
.

> <pathway_chembl>
.

> <pathway_reactome>
.

> <broad_targets>
.

> <broad_moa>
.

> <synonyms>
{NSC609699,"TOPOTECAN HYDROCHLORIDE",119413-54-6,119413546,"Topotecan Hcl",Hycamtin,"Topotecan (Hydrochloride)","Nogitecan hydrochloride","SK&F S-104864-A","SK&F S104864A","NSC 609699",UNII-956S425ZCY
,UNII956S425ZCY,"Topotecan hydrochloride (USAN)",NSC-609699,956S425ZCY,609699,S1231,SAM001246651,"Topotecan hydrochloride",topotecan,CPD000466344}

> <pdid>

> <targets>
{Apoptosis,Autophagy,Topoisomerase}

> <classes>
{Topoisomerase I Inhibitors,Apoptosis,Autophagy,Cell Cycle/DNA Damage}

> <pubchem_cids>
{57525346,11972519,60699}

$$$$
NCI_AOD5_2014
  SciTegic11012412592D

 40 42  0  0  0  0            999 V2000
    3.9254   -5.8780    0.0000 C   0  0
    4.8082   -4.6653    0.0000 C   0  0
    6.2998   -4.8240    0.0000 C   0  0
    5.4168   -6.0363    0.0000 C   0  0
    4.2010   -3.2956    0.0000 C   0  0
    2.7343   -2.9815    0.0000 N   0  0
    2.5987   -1.5004    0.0000 C   0  0
    1.2990   -0.7500    0.0000 C   0  0
    1.2990    0.7500    0.0000 C   0  0
    0.0000    1.5000    0.0000 C   0  0
   -1.2990    0.7500    0.0000 C   0  0
   -1.2990   -0.7500    0.0000 C   0  0
   -2.6003   -1.4978    0.0000 N   0  0
   -3.8990   -0.7455    0.0000 S   0  0
   -3.8964    0.7545    0.0000 O   0  0
   -2.5988    0.0025    0.0000 O   0  0
   -5.2003   -1.4932    0.0000 C   0  0
   -5.2034   -2.9932    0.0000 C   0  0
   -3.9059   -3.7459    0.0000 F   0  0
   -6.5040   -3.7406    0.0000 C   0  0
   -7.8015   -2.9879    0.0000 C   0  0
   -7.7984   -1.4879    0.0000 C   0  0
   -6.4978   -0.7406    0.0000 C   0  0
   -6.4947    0.7594    0.0000 F   0  0
    0.0000   -1.5000    0.0000 C   0  0
    0.0000   -3.0000    0.0000 F   0  0
    3.9511   -0.8815    0.0000 C   0  0
    4.9531   -1.9978    0.0000 S   0  0
    4.2567    0.5878    0.0000 C   0  0
    3.2235    1.6679    0.0000 C   0  0
    3.6446    3.1076    0.0000 C   0  0
    5.1019    3.4627    0.0000 N   0  0
    6.1382    2.3782    0.0000 C   0  0
    7.5955    2.7333    0.0000 N   0  0
    5.7171    0.9385    0.0000 N   0  0
   11.3962    0.2129    0.0000 C   0  0
   11.3962   -1.2871    0.0000 S   0  0
   10.0970   -2.0367    0.0000 O   0  0
   12.6955   -2.0367    0.0000 O   0  0
   11.3962   -2.7871    0.0000 O   0  0
  1  2  1  0
  2  3  1  0
  2  4  1  0
  2  5  1  0
  5  6  2  0
  6  7  1  0
  7  8  1  0
  8  9  2  0
  9 10  1  0
 10 11  2  0
 11 12  1  0
 12 13  1  0
 13 14  1  0
 14 15  2  0
 14 16  2  0
 14 17  1  0
 17 18  2  0
 18 19  1  0
 18 20  1  0
 20 21  2  0
 21 22  1  0
 22 23  2  0
 23 17  1  0
 23 24  1  0
 12 25  2  0
 25  8  1  0
 25 26  1  0
  7 27  2  0
 27 28  1  0
 28  5  1  0
 27 29  1  0
 29 30  2  0
 30 31  1  0
 31 32  2  0
 32 33  1  0
 33 34  1  0
 33 35  2  0
 35 29  1  0
 36 37  1  0
 37 38  2  0
 37 39  2  0
 37 40  1  0
M  END
> <name>
NCI_AOD5_2014

> <id>
2578

> <plate>
NCI_V5_A

> <well>
C07

> <supplier_cmpd_name>
Dabrafenib mesylate

> <ctcr_id>
3748

> <supplier_cmpd_id>
Dabrafenib mesylate

> <smiles>
CC(C)(C)c1nc(c2cccc(NS(=O)(=O)c3c(F)cccc3F)c2F)c(s1)c4ccnc(N)n4.CS(=O)(=O)O

> <pd_targets>
{RIPK1,BRAF,DSTYK,RIPK2,RIPK3,ARAF,KRAS,TGFBR1,RAF1,SIK1,NEK11,LIMK1}

> <pathway_gtopdb>
{Enzyme,"Unclassified protein",Kinase,"Protein Kinase","TKL protein kinase group","CAMK protein kinase group","Other protein kinase group","TKL protein kinase RIPK family","TKL protein kinase RAF fami
ly","TKL protein kinase STKR family","CAMK protein kinase CAMK1 family","Other protein kinase NEK family","TKL protein kinase LISK family","TKL protein kinase STKR Type 1 subfamily","CAMK protein kina
se QIK subfamily","Other protein kinase Nek11","TKL protein kinase LIMK subfamily"}

> <pathway_chembl>
{Receptors,Enzymes,"Catalytic receptors","3.6.5.2 Small monomeric GTPases","Kinases (EC 2.7.x.x)","Receptor kinases","RAS subfamily","CAMK: Calcium/calmodulin-dependent protein kinases","TKL: Tyrosine
 kinase-like","Other protein kinases","CAMK-like (CAMKL) family","Receptor interacting protein kinase (RIPK) family","RAF family","Other-unique family","Receptor serine/threonine kinase (RSTK) family"
,"QIK subfamily","NIMA (never in mitosis gene a)- related kinase (NEK) family","LIM domain kinase (LISK) family","Type I receptor serine/threonine kinases","LIMK subfamily"}

> <pathway_reactome>
{"Immune System","Signal Transduction",Disease,"Neuronal System","Circadian Clock","Developmental Biology","Innate Immune System","Signaling by Receptor Tyrosine Kinases","Diseases of signal transduct
ion by growth factor receptors and second messengers","Transmission across Chemical Synapses","MAPK family signaling cascades","Nervous system development","Toll-like Receptor Cascades","Signaling by 
NTRKs","Oncogenic MAPK signaling","Neurotransmitter receptors and postsynaptic signal transmission","Signaling by TGF-beta Receptor Complex in Cancer","MAPK1/MAPK3 signaling","Axon guidance","Toll Lik
e Receptor 4 (TLR4) Cascade","Signaling by NTRK1 (TRKA)","Toll Like Receptor 5 (TLR5) Cascade","Signaling by RAS mutants","Activation of NMDA receptors and postsynaptic events","Loss of Function of SM
AD2/3 in Cancer","RAF/MAP kinase cascade","Semaphorin interactions","MyD88-independent TLR4 cascade","Signalling to ERKs","MyD88 cascade initiated on plasma membrane","Signaling downstream of RAS muta
nts","Post NMDA receptor activation events","SMAD2/3 Phosphorylation Motif Mutants in Cancer","Negative regulation of MAPK pathway","Sema4D in semaphorin signaling","TRIF(TICAM1)-mediated TLR4 signali
ng","Prolonged ERK activation events","MAP kinase activation","CREB1 phosphorylation through NMDA receptor-mediated activation of RAS signaling","Negative feedback regulation of MAPK pathway","Sema4D 
induced cell migration and growth-cone collapse","IKK complex recruitment mediated by RIP1","ARMS-mediated activation","activated TAK1 mediates p38 MAPK activation","Ras activation upon Ca2+ influx th
rough NMDA receptor"}

> <broad_targets>
{BRAF,LIMK1,NEK11,RAF1,SIK1}

> <broad_moa>
{"RAF inhibitor"}

> <synonyms>
{"Dabrafenib mesylate",1195768-06-9,1195768069,"Dabrafenib (Mesylate)",UNII-B6DC89I63E,UNIIB6DC89I63E,"GSK 2118436B","METHANE SULFONATE SALT","1195768-06-9 (mesylate)","1195768069 (mesylate)",GSK-2118
436B,GSK2118436B,"Dabrafenib mesylate (USAN)","GSK-2118436 mesylate","GSK2118436 mesylate",B6DC89I63E,CHEBI:75048,GSK2,764134}

> <pdid>
PD003542

> <targets>
{Raf}

> <classes>
{NoneGiven}

> <pubchem_cids>
{44516822}

$$$$
NCI_AOD5_2014
  SciTegic11012412592D

 12 11  0  0  0  0            999 V2000
    0.0007    0.0004    0.0000 N   0  0
    1.3000    0.7500    0.0000 C   0  0
    2.6000    0.0000    0.0000 C   0  0
    3.9000    0.7500    0.0000 C   0  0
    5.2000    0.0000    0.0000 N   0  0
    6.5000    0.7500    0.0000 C   0  0
    7.7999    0.0000    0.0000 C   0  0
    9.0999    0.7500    0.0000 S   0  0
   10.3999    0.0000    0.0000 P   0  0
   10.3999   -1.5000    0.0000 O   0  0
   11.6988   -0.7502    0.0000 O   0  0
   11.6992    0.7496    0.0000 O   0  0
  1  2  1  0
  2  3  1  0
  3  4  1  0
  4  5  1  0
  5  6  1  0
  6  7  1  0
  7  8  1  0
  8  9  1  0
  9 10  1  0
  9 11  1  0
  9 12  2  0
M  END
> <name>
NCI_AOD5_2014

> <id>
2579

> <plate>
NCI_V5_A

> <well>
C08

> <supplier_cmpd_name>
Amifostine

> <ctcr_id>
6193

> <supplier_cmpd_id>
296961

> <smiles>
NCCCNCCS[P](O)(O)=O

> <pd_targets>
{CHRM1,DRD3,ALPG}

> <pathway_gtopdb>
{"Membrane receptor",Enzyme,"Family A G protein-coupled receptor",Phosphatase,"Small molecule receptor (family A GPCR)","Monoamine receptor","Acetylcholine receptor","Dopamine receptor"}

> <pathway_chembl>
{Receptors,"G protein-coupled receptors","Acetylcholine receptors (muscarinic)","Dopamine receptors"}

> <pathway_reactome>
{"Signal Transduction","Metabolism of proteins","Signaling by GPCR","Post-translational protein modification","GPCR ligand binding","Post-translational modification: synthesis of GPI-anchored proteins
","Class A/1 (Rhodopsin-like receptors)","Amine ligand-binding receptors","Muscarinic acetylcholine receptors","Dopamine receptors"}

> <broad_targets>
{ALPPL2,ENPP1}

> <broad_moa>
{"reducing agent"}

> <synonyms>
{DSSTox_GSID_22585,DSSToxGSID22585,DSSTox-GSID-22585,"DSSTox GSID 22585",amifostine,20537-88-6,20537886,Ethiofos,Gammaphos,Ethyol,Sapep,Apaetp,"Aminopropylaminoethyl thiophosphate","WR 2721",NSC-29696
1,NSC296961,YM-08310,YM08310,"2-(3-Aminopropylamino)ethyl thiophosphate","2(3Aminopropylamino)ethyl thiophosphate",AU-95722,AU95722,UNII-ILA426L95O,UNIIILA426L95O,"Amifostine (Hydra",T3289,296961,Pres
tw-1489,"NSC 296961",Amifostine}

> <pdid>
PD001085

> <targets>
{}

> <classes>
{"Radiation-Protective Agents"}

> <pubchem_cids>
{29927142,2141}

$$$$
NCI_AOD5_2014
  SciTegic11012412592D

 22 25  0  0  1  0            999 V2000
    2.6640   -0.1280    0.0000 C   0  0
    1.2990   -0.7500    0.0000 C   0  0  2  0  0  0
    1.2990    0.7500    0.0000 C   0  0
    0.0000    1.5000    0.0000 C   0  0
   -1.2990    0.7500    0.0000 C   0  0  1  0  0  0
   -1.2990   -0.7500    0.0000 C   0  0  1  0  0  0
   -2.5981   -1.5000    0.0000 C   0  0
   -3.8971   -0.7500    0.0000 C   0  0
   -5.1961   -1.5000    0.0000 C   0  0
   -3.8971    0.7500    0.0000 C   0  0
   -5.1962    1.5000    0.0000 C   0  0
   -5.1962    3.0000    0.0000 C   0  0
   -6.4952    3.7500    0.0000 O   0  0
   -3.8971    3.7500    0.0000 C   0  0
   -2.5981    3.0000    0.0000 C   0  0
   -2.5981    1.5000    0.0000 C   0  0  2  0  0  0
   -1.2990    2.2500    0.0000 C   0  0
    0.0000   -1.5000    0.0000 C   0  0  2  0  0  0
    0.3326   -2.9571    0.0000 C   0  0
    1.8253   -3.1044    0.0000 C   0  0
    2.4266   -1.7302    0.0000 C   0  0
    3.8900   -1.4008    0.0000 O   0  0
  2  1  1  1
  2  3  1  0
  3  4  1  0
  5  4  1  1
  5  6  1  0
  6  7  1  6
  7  8  1  0
  8  9  2  0
  8 10  1  0
 10 11  2  3
 11 12  1  0
 12 13  2  0
 12 14  1  0
 14 15  2  3
 15 16  1  0
 16  5  1  0
 16 10  1  0
 16 17  1  1
  6 18  1  0
 18  2  1  0
 18 19  1  1
 19 20  1  0
 20 21  1  0
 21  2  1  0
 21 22  2  0
M  END
> <name>
NCI_AOD5_2014

> <id>
2580

> <plate>
NCI_V5_A

> <well>
C09

> <supplier_cmpd_name>
Exemestane

> <ctcr_id>
5719

> <supplier_cmpd_id>
713563

> <smiles>
C[C@]12CC[C@H]3[C@@H](CC(=C)C4=CC(=O)C=C[C@]34C)[C@@H]1CCC2=O

> <pd_targets>
{TGR,CYP19A1,ABCB11}

> <pathway_gtopdb>
{Enzyme,Transporter,"Cytochrome P450","Primary active transporter","Cytochrome P450 family 19","ATP-binding cassette","Cytochrome P450 family 19A","ABCB subfamily","Cytochrome P450 19A1"}

> <pathway_chembl>
{Enzymes,Transporters,"Cytochrome P450","ATP-binding cassette transporter family",CYP11,CYP17,CYP19,"CYP20 and CYP21 families","ABCB subfamily"}

> <pathway_reactome>
{Metabolism,"Biological oxidations","Metabolism of lipids","Phase I - Functionalization of compounds","Metabolism of steroids","Cytochrome P450 - arranged by substrate type","Bile acid and bile salt m
etabolism","Endogenous sterols","Synthesis of bile acids and bile salts","Synthesis of bile acids and bile salts via 7alpha-hydroxycholesterol"}

> <broad_targets>
{CYP19A1}

> <broad_moa>
{"aromatase inhibitor"}

> <synonyms>
{EXEMESTANE,107868-30-4,107868304,"107868 30 4",Aromasin,Aromasine,"6-Methyleneandrosta-1,4-diene-3,17-dione","6Methyleneandrosta1,4diene3,17dione","6 Methyleneandrosta 1,4 diene 3,17 dione","Fce 2430
4",Exemestano,Exemestanum,"Exemestanum (INN",713563,SAM001246574,Prestw-1410,"NSC 713563",Exemestane,CPD000466314}

> <pdid>
PD000653

> <targets>
{Aromatase}

> <classes>
{aromatase inhibitor,Others}

> <pubchem_cids>
{60198}

$$$$
NCI_AOD5_2014
  SciTegic11012412592D

 32 34  0  0  0  0            999 V2000
    5.1996   -1.4928    0.0000 C   0  0
    3.8990   -0.7455    0.0000 N   0  0
    2.6003   -1.4977    0.0000 C   0  0
    2.6030   -2.9977    0.0000 O   0  0
    1.2990   -0.7500    0.0000 C   0  0
    1.2990    0.7500    0.0000 C   0  0
    0.0000    1.5000    0.0000 C   0  0
   -1.2990    0.7500    0.0000 C   0  0
   -1.2990   -0.7500    0.0000 C   0  0
    0.0000   -1.5000    0.0000 C   0  0
    0.0000   -3.0000    0.0000 F   0  0
   -2.5987    1.5004    0.0000 N   0  0
   -3.9492    0.8772    0.0000 C   0  0
   -4.2500   -0.5923    0.0000 S   0  0
   -4.9546    1.9903    0.0000 N   0  0
   -4.2067    3.2905    0.0000 C   0  0
   -4.8190    4.6599    0.0000 O   0  0
   -2.7390    2.9810    0.0000 C   0  0
   -1.3214    2.4906    0.0000 C   0  0
   -3.0655    4.4450    0.0000 C   0  0
   -6.4469    1.8311    0.0000 C   0  0
   -7.1532    0.5134    0.0000 C   0  0
   -8.6524    0.4669    0.0000 C   0  0
   -9.4423    1.7421    0.0000 C   0  0
  -10.9424    1.6956    0.0000 C   0  0
  -12.4417    1.6491    0.0000 N   0  0
   -8.7329    3.0637    0.0000 C   0  0
   -7.2337    3.1102    0.0000 C   0  0
   -9.5233    4.3396    0.0000 C   0  0
  -11.0226    4.2941    0.0000 F   0  0
   -8.8135    5.6610    0.0000 F   0  0
  -10.3126    5.6152    0.0000 F   0  0
  1  2  1  0
  2  3  1  0
  3  4  2  0
  3  5  1  0
  5  6  2  0
  6  7  1  0
  7  8  2  0
  8  9  1  0
  9 10  2  0
 10  5  1  0
 10 11  1  0
  8 12  1  0
 12 13  1  0
 13 14  2  0
 13 15  1  0
 15 16  1  0
 16 17  2  0
 16 18  1  0
 18 12  1  0
 18 19  1  0
 18 20  1  0
 15 21  1  0
 21 22  2  0
 22 23  1  0
 23 24  2  0
 24 25  1  0
 25 26  3  0
 24 27  1  0
 27 28  2  0
 28 21  1  0
 27 29  1  0
 29 30  1  0
 29 31  1  0
 29 32  1  0
M  END
> <name>
NCI_AOD5_2014

> <id>
2581

> <plate>
NCI_V5_A

> <well>
C10

> <supplier_cmpd_name>
Enzalutamide

> <ctcr_id>
3700

> <supplier_cmpd_id>
Enzalutamide

> <smiles>
CNC(=O)c1ccc(cc1F)N2C(=S)N(C(=O)C2(C)C)c3ccc(C#N)c(c3)C(F)(F)F

> <pd_targets>
{AR}

> <pathway_gtopdb>
{"Transcription factor","Nuclear receptor","Nuclear hormone receptor subfamily 3","Nuclear hormone receptor subfamily 3 group C","Nuclear hormone receptor subfamily 3 group C member 4"}

> <pathway_chembl>
{Receptors,"Nuclear hormone receptors","Steroid hormone receptors","3C. 3-Ketosteroid receptors"}

> <pathway_reactome>
{"Gene expression (Transcription)","RNA Polymerase II Transcription","Generic Transcription Pathway","Transcriptional regulation by RUNX2","RUNX2 regulates bone development","RUNX2 regulates osteoblas
t differentiation"}

> <broad_targets>
{AR}

> <broad_moa>
{"androgen receptor antagonist"}

> <synonyms>
{Enzalutamide,915087-33-1,915087331,MDV3100,MDV-3100,"Enzalutamide (MDV3100)","MDV 3100",XTANDI,"MDV3100 (Enzalutamide)",UNII-93T0T9GKNU,UNII93T0T9GKNU,"MDV3100 Enzalutamide",93T0T9GKNU,CHEBI:68534,"E
nzalutamide (USAN:INN)",Enzalutamid,"Xtandi (TN)",144333,T6002,755605,S1250}

> <pdid>
PD004101

> <targets>
{Androgen Receptor,P450,Autophagy}

> <classes>
{Androgen Receptor Inhibitor,Endocrinology & Hormones,Autophagy,Others}

> <pubchem_cids>
{15951529}

$$$$
NCI_AOD5_2014
  SciTegic11012412592D

 21 23  0  0  0  0            999 V2000
    3.8983   -0.7459    0.0000 C   0  0
    2.6003   -1.4977    0.0000 O   0  0
    1.2990   -0.7500    0.0000 C   0  0
    1.2990    0.7500    0.0000 N   0  0
    0.0000    1.5000    0.0000 C   0  0
    0.0000    3.0000    0.0000 N   0  0
   -1.2990    0.7500    0.0000 N   0  0
   -1.2990   -0.7500    0.0000 C   0  0
   -2.4133   -1.7530    0.0000 N   0  0
   -1.8032   -3.1233    0.0000 C   0  0
   -0.3114   -2.9665    0.0000 N   0  0
    0.0000   -1.5000    0.0000 C   0  0
   -3.8813   -1.4408    0.0000 C   0  0
   -4.8896   -2.5354    0.0000 O   0  0
   -6.2433   -1.8893    0.0000 C   0  0
   -7.5587   -2.6066    0.0000 C   0  0
   -7.5961   -4.1061    0.0000 O   0  0
   -6.0471   -0.4022    0.0000 C   0  0
   -7.1349    0.6307    0.0000 O   0  0
   -4.5721   -0.1292    0.0000 C   0  0
   -3.9177    1.2205    0.0000 O   0  0
  1  2  1  0
  2  3  1  0
  3  4  2  0
  4  5  1  0
  5  6  1  0
  5  7  2  0
  7  8  1  0
  8  9  1  0
  9 10  1  0
 10 11  2  0
 11 12  1  0
 12  3  1  0
 12  8  2  0
  9 13  1  0
 13 14  1  0
 14 15  1  0
 15 16  1  0
 16 17  1  0
 15 18  1  0
 18 19  1  0
 18 20  1  0
 20 13  1  0
 20 21  1  0
M  END
> <name>
NCI_AOD5_2014

> <id>
2582

> <plate>
NCI_V5_A

> <well>
C11

> <supplier_cmpd_name>
Nelarabine

> <ctcr_id>
2935

> <supplier_cmpd_id>
686673

> <smiles>
COc1nc(N)nc2n(cnc12)C3OC(CO)C(O)C3O

> <pd_targets>
{POLA1,KMT2A,MEN1}

> <pathway_gtopdb>
{Enzyme,"Epigenetic regulator",Transferase,Reader,Bromodomain}

> <pathway_chembl>
{}

> <pathway_reactome>
{"Cell Cycle",Mitotic,"Mitotic G1 phase and G1/S transition","G1/S Transition","E2F mediated regulation of DNA replication","Inhibition of replication initiation of damaged DNA by RB1/E2F1"}

> <broad_targets>
{POLA1}

> <broad_moa>
{"DNA synthesis inhibitor","T cell inhibitor"}

> <synonyms>
{o6-methylguanosine,o6methylguanosine,7803-88-5,7803885,"6-O-Methyl Guanosine","6OMethyl Guanosine",34793-34-5,34793345,"2-Amino-6-methoxypurine arabinoside","2Amino6methoxypurine arabinoside",CHEMBL1
513356,SCHEMBL13657986,HMS3654B03,NSC66381,"Arranon (TN) (Glaxo Smith Kline)",2-(2-amino-6-methoxypurin-9-yl)-5-(hydroxymethyl)oxolane-3,2(2amino6methoxypurin9yl)5(hydroxymethyl)oxolane3,4-d,4d,686673
,S1213,"NSC 686673",Nelarabine}

> <pdid>
PD003304

> <targets>
{"DNA/RNA Synthesis"}

> <classes>
{"DNA Damage","Nucleoside Metabolic Inhibitor"}

> <pubchem_cids>
{248862}

$$$$
NCI_AOD5_2014
  SciTegic11012412592D

 19 19  0  0  0  0            999 V2000
    9.0769  -12.7722    0.0000 O   0  0
    7.7794  -12.0195    0.0000 N   0  0
    7.7815  -10.5187    0.0000 C   0  0
    9.0819   -9.7710    0.0000 O   0  0
    6.4833   -9.7656    0.0000 C   0  0
    6.4855   -8.2648    0.0000 C   0  0
    5.1873   -7.5117    0.0000 C   0  0
    5.1894   -6.0109    0.0000 C   0  0
    3.8912   -5.2578    0.0000 C   0  0
    3.8933   -3.7570    0.0000 C   0  0
    2.5951   -3.0039    0.0000 C   0  0
    1.2948   -3.7516    0.0000 O   0  0
    2.5973   -1.5031    0.0000 N   0  0
    1.2990   -0.7500    0.0000 C   0  0
    1.2990    0.7500    0.0000 C   0  0
    0.0000    1.5000    0.0000 C   0  0
   -1.2990    0.7500    0.0000 C   0  0
   -1.2990   -0.7500    0.0000 C   0  0
    0.0000   -1.5000    0.0000 C   0  0
  1  2  1  0
  2  3  1  0
  3  4  2  0
  3  5  1  0
  5  6  1  0
  6  7  1  0
  7  8  1  0
  8  9  1  0
  9 10  1  0
 10 11  1  0
 11 12  2  0
 11 13  1  0
 13 14  1  0
 14 15  2  0
 15 16  1  0
 16 17  2  0
 17 18  1  0
 18 19  2  0
 19 14  1  0
M  END
> <name>
NCI_AOD5_2014

> <id>
2583

> <plate>
NCI_V5_A

> <well>
D02

> <supplier_cmpd_name>
Vorinostat

> <ctcr_id>
1952

> <supplier_cmpd_id>
701852

> <smiles>
ONC(=O)CCCCCCC(=O)Nc1ccccc1

> <pd_targets>
{GLI1,HDAC1,HDAC10,HDAC11,HDAC2,HDAC3,HDAC4,HDAC5,HDAC6,HDAC7,HDAC8,HDAC9,BRD4,HDA106,NCOR2,NCOR1,HDAH,LTA4H,KDM4E,NR0B1,NR1I2,HD1B,RCOR3,CYP3A4,CFTR,PAX8}

> <pathway_gtopdb>
{"Transcription factor","Epigenetic regulator",Enzyme,"Ion channel","Unclassified protein",Eraser,Reader,Hydrolase,Protease,"Nuclear receptor","Cytochrome P450","Other ion channel","Histone deacetylas
e",Bromodomain,"Metallo protease","Lysine demethylase","Nuclear hormone receptor subfamily 0","Nuclear hormone receptor subfamily 1","Cytochrome P450 family 3","Chloride channel","HDAC class I","HDAC 
class IV","HDAC class IIb","HDAC class IIa","Metallo protease MAE clan","Jumonji domain-containing","Nuclear hormone receptor subfamily 0 group B","Nuclear hormone receptor subfamily 1 group I","Cytoc
hrome P450 family 3A","Cystic fibrosis transmembrane conductance regulator","Metallo protease M1 family","Nuclear hormone receptor subfamily 0 group B member 1","Nuclear hormone receptor subfamily 1 g
roup I member 2","Cytochrome P450 3A4"}

> <pathway_chembl>
{Enzymes,Receptors,"Ion channels","Other protein targets","Chromatin modifying enzymes","Peptidases and proteinases","Nuclear hormone receptors","Cytochrome P450","Other ion channels","Anti-infective 
targets","3.5.1.- Histone deacetylases (HDACs)","Enzymatic bromodomain-containing proteins","MA: Metallo (M) Peptidases","1.14.11.- Histone demethylases","0B. DAX-like receptors","1I. Vitamin D recept
or-like receptors","CYP3 family","Chloride channels","Antimalarial targets","Bromodomain kinase (BRDK) family","M1: Aminopeptidase N",CFTR,"Histone deacetylases (HDACs) (<i>Plasmodium</i> spp.)"}

> <pathway_reactome>
{"Signal Transduction","Gene expression (Transcription)","Cell Cycle",Disease,Metabolism,"Metabolism of proteins",Autophagy,"Signaling by Hedgehog","RNA Polymerase II Transcription",Mitotic,"Disorders
 of Developmental Biology","Infectious disease","Diseases of signal transduction by growth factor receptors and second messengers","Metabolism of lipids","Post-translational protein modification",Macr
oautophagy,"Hedgehog 'off' state","Generic Transcription Pathway","M Phase","Disorders of Nervous System Development","SARS-CoV Infections","Signaling by NOTCH1 in Cancer","Biosynthesis of specialized
 proresolving mediators (SPMs)",SUMOylation,"Selective autophagy","Degradation of GLI1 by the proteasome","Transcriptional Regulation by TP53","Mitotic Metaphase and Anaphase","Pervasive developmental
 disorders","Potential therapeutics for SARS","Signaling by NOTCH1 HD+PEST Domain Mutants in Cancer","Transcriptional regulation by RUNX2","Biosynthesis of DHA-derived SPMs","Nuclear Receptor transcri
ption pathway","SUMO E3 ligases SUMOylate target proteins",Aggrephagy,"Regulation of TP53 Activity","Mitotic Anaphase","Loss of function of MECP2 in Rett syndrome","Constitutive Signaling by NOTCH1 HD
+PEST Domain Mutants","RUNX2 regulates bone development","Biosynthesis of aspirin-triggered D-series resolvins","SUMOylation of intracellular receptors","Biosynthesis of maresins","Regulation of TP53 
Activity through Acetylation","Separation of Sister Chromatids","Loss of MECP2 binding ability to the NCoR/SMRT complex","Loss of MECP2 binding ability to 5mC-DNA","RUNX2 regulates osteoblast differen
tiation","RUNX2 regulates chondrocyte maturation","Biosynthesis of maresin-like SPMs"}

> <broad_targets>
{HDAC1,HDAC10,HDAC11,HDAC2,HDAC3,HDAC5,HDAC6,HDAC8,HDAC9}

> <broad_moa>
{"HDAC inhibitor"}

> <synonyms>
{Vorinostat,149647-78-9,149647789,SAHA,"suberoylanilide hydroxamic acid",Zolinza,N-hydroxy-N'-phenyloctanediamide,NhydroxyN'phenyloctanediamide,"Suberanilohydroxamic acid",N1-hydroxy-N8-phenyloctanedi
amide,N1hydroxyN8phenyloctanediamide,MK-0683,MK0683,"Vorinostat (SAHA, MK0683)","Octanediamide, N-hydroxy-N'-phenyl-","Octanediamide, NhydroxyN'phenyl",N,T1583,701852,10009929,S1047,Prestw-1362,"NSC 7
01852",vorinostat,VORINOSTAT,"SAHA, Zolinza, Vorinostat"}

> <pdid>
PD001323

> <targets>
{HDAC Inhibitors,Autophagy,HDAC,Apoptosis,Filovirus,Mitophagy}

> <classes>
{Epigenetics,HDAC inhibitor,Anti-infection,Apoptosis,Autophagy,Cell Cycle/DNA Damage}

> <pubchem_cids>
{5311}

$$$$
NCI_AOD5_2014
  SciTegic11012412592D

 45 49  0  0  1  0            999 V2000
    8.9060   -2.8271    0.0000 Cl  0  5
    2.5951   -3.0031    0.0000 C   0  0
    2.5973   -1.5031    0.0000 C   0  0
    1.2990   -0.7500    0.0000 C   0  0
    1.2990    0.7500    0.0000 C   0  0
    2.4133    1.7530    0.0000 C   0  0
    1.8032    3.1233    0.0000 N   0  0
    2.4134    4.4924    0.0000 C   0  0
    3.9053    4.6489    0.0000 O   0  0
    1.5317    5.7059    0.0000 C   0  0
    0.0400    5.5491    0.0000 C   0  0
   -0.5701    4.1788    0.0000 C   0  0
    0.3114    2.9665    0.0000 C   0  0
    0.0000    1.5000    0.0000 C   0  0
   -1.2990    0.7500    0.0000 N   0  0
   -1.2990   -0.7500    0.0000 C   0  0
   -2.5981   -1.5000    0.0000 C   0  0
   -2.5981   -3.0000    0.0000 C   0  0
   -1.2990   -3.7500    0.0000 C   0  0
   -1.2959   -5.2508    0.0000 O   0  0
    0.0049   -5.9994    0.0000 C   0  0
    1.3026   -5.2471    0.0000 O   0  0
    0.0080   -7.5002    0.0000 N   0  0
    1.3070   -8.2503    0.0000 C   0  0
    1.3071   -9.7503    0.0000 C   0  0
    0.0081  -10.5003    0.0000 C   0  0
   -1.2910   -9.7503    0.0000 C   0  0
   -1.2910   -8.2503    0.0000 C   0  0
    0.0081  -12.0011    0.0000 N   0  0
    1.3060  -12.7532    0.0000 C   0  0
    1.3036  -14.2532    0.0000 C   0  0
    0.0034  -15.0012    0.0000 C   0  0
   -1.2944  -14.2491    0.0000 C   0  0
   -1.2921  -12.7491    0.0000 C   0  0
    0.0000   -3.0000    0.0000 C   0  0
    0.0000   -1.5000    0.0000 C   0  0
   -0.8417    6.7626    0.0000 C   0  0  1  0  0  0
   -1.6934    7.9974    0.0000 O   0  0
   -1.4104    5.3957    0.0000 C   0  0
   -2.8925    5.1650    0.0000 C   0  0
   -0.2316    8.1329    0.0000 C   0  0
   -1.1133    9.3464    0.0000 O   0  0
    1.2601    8.2897    0.0000 O   0  0
    2.1418    7.0762    0.0000 C   0  0
    6.4060   -2.8271    0.0000 H   0  3
  2  3  1  0
  3  4  1  0
  4  5  2  0
  5  6  1  0
  6  7  1  0
  7  8  1  0
  8  9  2  0
  8 10  1  0
 10 11  2  3
 11 12  1  0
 12 13  2  3
 13  7  1  0
 13 14  1  0
 14  5  1  0
 14 15  2  0
 15 16  1  0
 16 17  2  0
 17 18  1  0
 18 19  2  0
 19 20  1  0
 20 21  1  0
 21 22  2  0
 21 23  1  0
 23 24  1  0
 24 25  1  0
 25 26  1  0
 26 27  1  0
 27 28  1  0
 28 23  1  0
 26 29  1  0
 29 30  1  0
 30 31  1  0
 31 32  1  0
 32 33  1  0
 33 34  1  0
 34 29  1  0
 19 35  1  0
 35 36  2  0
 36  4  1  0
 36 16  1  0
 11 37  1  0
 37 38  1  6
 37 39  1  0
 39 40  1  0
 37 41  1  0
 41 42  2  0
 41 43  1  0
 43 44  1  0
 44 10  1  0
M  CHG  2   1  -1  45   1
M  END
> <name>
NCI_AOD5_2014

> <id>
2584

> <plate>
NCI_V5_A

> <well>
D03

> <supplier_cmpd_name>
Irinotecan hydrochloride

> <ctcr_id>
6671

> <supplier_cmpd_id>
616348

> <smiles>
[Cl-].CCc1c2CN3C(=O)C4=C(C=C3c2nc5ccc(OC(=O)N6CCC(CC6)N7CCCCC7)cc15)[C@@](O)(CC)C(=O)OC4.[H+]

> <pd_targets>
{RMLC,NCOA1,NCOA3,HPGD,ALDH1A1,GLA,LMNA,KDM4E,HSD17B10,GAA,ACHE,MMP1,CYP3A4,PAX8,ADRA2C,SLC47A1,SLC22A3,SLC47A2,SLC22A1,CHRM4,SLC22A2,TOP1,TOP1MT}

> <pathway_gtopdb>
{Enzyme,"Epigenetic regulator","Other nuclear protein","Unclassified protein","Membrane receptor",Transporter,Isomerase,Writer,Oxidoreductase,Hydrolase,Eraser,Protease,"Cytochrome P450","Family A G pr
otein-coupled receptor","Electrochemical transporter","Histone acetyltransferase","Lysine demethylase","Cysteine protease","Metallo protease","Cytochrome P450 family 3","Small molecule receptor (famil
y A GPCR)","SLC superfamily of solute carriers","SRC family","Jumonji domain-containing","Cysteine protease CA clan","Metallo protease MAM clan","Cytochrome P450 family 3A","Monoamine receptor","SLC47
 family of multidrug and toxin extrusion transporters","SLC22 family of organic cation and anion transporters","Cysteine protease C1A family","Metallo protease M10A subfamily","Cytochrome P450 3A4","A
drenergic receptor","Acetylcholine receptor"}

> <pathway_chembl>
{Enzymes,Receptors,Transporters,"Chromatin modifying enzymes","Eicosanoid turnover","3.2.1.- Glycosidases","Acetylcholine turnover","Peptidases and proteinases","Cytochrome P450","G protein-coupled re
ceptors","SLC superfamily of solute carriers","DNA topoisomerases","2.3.1.48 Histone acetyltransferases (HATs)","Prostaglandin synthases","1.14.11.- Histone demethylases","MA: Metallo (M) Peptidases",
"CYP3 family",Adrenoceptors,"SLC47 family of multidrug and toxin extrusion transporters","SLC22 family of organic cation and anion transporters","Acetylcholine receptors (muscarinic)","M10: Matrix met
allopeptidase","Organic cation transporters (OCT)"}

> <pathway_reactome>
{Metabolism,"Cell Cycle",Disease,"Immune System","Signal Transduction","Transport of small molecules","Metabolism of proteins","Metabolism of lipids","Biological oxidations",Mitotic,"Metabolism of ami
no acids and derivatives","Diseases of metabolism","Cytokine Signaling in Immune system","Signaling by GPCR","SLC-mediated transmembrane transport","Post-translational protein modification","Metabolis
m of steroids","Regulation of lipid metabolism by PPARalpha","Biosynthesis of specialized proresolving mediators (SPMs)","Phase I - Functionalization of compounds","Sphingolipid metabolism","M Phase",
"Branched-chain amino acid catabolism","Diseases of carbohydrate metabolism","Phospholipid metabolism","Signaling by Interleukins","GPCR ligand binding","Transport of bile salts and organic acids","me
tal ions and amine compounds",SUMOylation,"Bile acid and bile salt metabolism","PPARA activates gene expression","Biosynthesis of DHA-derived SPMs","Ethanol oxidation","Glycosphingolipid metabolism","
Mitotic Metaphase and Anaphase","Glycogen storage diseases","Glycerophospholipid biosynthesis","Interleukin-4 and Interleukin-13 signaling","Class A/1 (Rhodopsin-like receptors)","Organic cation/anion
/zwitterion transport","SUMO E3 ligases SUMOylate target proteins","Synthesis of bile acids and bile salts","Biosynthesis of D-series resolvins","Mitotic Anaphase","Glycogen storage disease type II (G
AA)","Synthesis of PC","Biosynthesis of maresins","Amine ligand-binding receptors","Organic cation transport","SUMOylation of DNA replication proteins","Synthesis of bile acids and bile salts via 27-h
ydroxycholesterol","Nuclear Envelope (NE) Reassembly","Biosynthesis of maresin-like SPMs",Adrenoceptors,"Muscarinic acetylcholine receptors","Initiation of Nuclear Envelope (NE) Reformation"}

> <broad_targets>
{TOP1,TOP1MT}

> <broad_moa>
{"topoisomerase inhibitor"}

> <synonyms>
{"Irinotecan hydrochloride",100286-90-6,100286906,"Irinotecan Hcl",Topotecin,Campto,Camptosar,"CPT 11",CPT-11,CPT11,"Camptothecin 11 hydrochloride","Irinotecan (hydrochloride)","Camptothecin 11",UNII-
06X131E4OE,UNII06X131E4OE,"U 101440E",CHEBI:5971,Camptothec,616348,NSC616348,"NSC 616348"}

> <pdid>
PD009733

> <targets>
{}

> <classes>
{"Topoisomerase I Inhibitors"}

> <pubchem_cids>
{74990,67108483}

$$$$
NCI_AOD5_2014
  SciTegic11012412592D

 40 43  0  0  1  0            999 V2000
    6.3990   -6.3774    0.0000 Cl  0  0
    3.8983   -0.7459    0.0000 C   0  0
    2.6003   -1.4977    0.0000 O   0  0
    1.2990   -0.7500    0.0000 C   0  0
    1.2990    0.7500    0.0000 C   0  0
    0.0000    1.5000    0.0000 C   0  0
   -1.2990    0.7500    0.0000 C   0  0
   -1.2990   -0.7500    0.0000 C   0  0
   -2.5981   -1.5000    0.0000 C   0  0
   -3.8971   -0.7500    0.0000 O   0  0
   -2.5981   -3.0000    0.0000 C   0  0
   -3.8971   -3.7500    0.0000 C   0  0
   -5.1961   -3.0000    0.0000 O   0  0
   -3.8971   -5.2500    0.0000 C   0  0
   -5.1961   -6.0000    0.0000 C   0  0
   -5.1961   -7.5000    0.0000 C   0  0  2  0  0  0
   -6.4764   -6.7185    0.0000 O   0  0
   -3.8971   -8.2500    0.0000 C   0  0
   -2.5980   -7.5000    0.0000 C   0  0  2  0  0  0
   -1.2998   -8.2531    0.0000 O   0  0
   -1.3019   -9.7539    0.0000 C   0  0
   -0.0055  -10.5085    0.0000 C   0  0
   -0.0107  -12.0085    0.0000 C   0  0
    1.2858  -12.7630    0.0000 N   0  0
   -1.3123  -12.7540    0.0000 C   0  0
   -1.3175  -14.2540    0.0000 O   0  0
   -2.6087  -11.9995    0.0000 C   0  0
   -3.9104  -12.7450    0.0000 C   0  0
   -2.6036  -10.4995    0.0000 O   0  0
   -2.5980   -6.0000    0.0000 C   0  0
   -1.2990   -5.2500    0.0000 C   0  0
    0.0000   -6.0000    0.0000 O   0  0
   -1.2990   -3.7500    0.0000 C   0  0
    0.0000   -3.0000    0.0000 C   0  0
    1.2991   -3.7500    0.0000 O   0  0
    0.0000   -1.5000    0.0000 C   0  0
   -5.1596   -8.9800    0.0000 C   0  0
   -6.4587   -9.7299    0.0000 O   0  0
   -3.8602   -9.7310    0.0000 C   0  0
   -3.8599  -11.2310    0.0000 O   0  0
  2  3  1  0
  3  4  1  0
  4  5  2  0
  5  6  1  0
  6  7  2  0
  7  8  1  0
  8  9  1  0
  9 10  2  0
  9 11  1  0
 11 12  2  0
 12 13  1  0
 12 14  1  0
 14 15  1  0
 15 16  1  0
 16 17  1  1
 16 18  1  0
 18 19  1  0
 19 20  1  1
 20 21  1  0
 21 22  1  0
 22 23  1  0
 23 24  1  0
 23 25  1  0
 25 26  1  0
 25 27  1  0
 27 28  1  0
 27 29  1  0
 29 21  1  0
 19 30  1  0
 30 14  2  0
 30 31  1  0
 31 32  1  0
 31 33  2  0
 33 11  1  0
 33 34  1  0
 34 35  2  0
 34 36  1  0
 36  4  1  0
 36  8  2  0
 16 37  1  0
 37 38  2  0
 37 39  1  0
 39 40  1  0
M  END
> <name>
NCI_AOD5_2014

> <id>
2585

> <plate>
NCI_V5_A

> <well>
D04

> <supplier_cmpd_name>
Doxorubicin hydrochloride

> <ctcr_id>
3694

> <supplier_cmpd_id>
123127

> <smiles>
Cl.COc1cccc2C(=O)c3c(O)c4C[C@](O)(C[C@H](OC5CC(N)C(O)C(C)O5)c4c(O)c3C(=O)c12)C(=O)CO

> <pd_targets>
{HSP90AA1,HSP90AB1,HIF1A,MAPT,RORC,MAPK1,POLB,SKA,FTL,KEAP1,NFE2L2,S100A4,THRB,STX1,ALDH1A1,FFP,NS1,ALD,GLF,KMT2A,MEN1,RECQL,KDM4E,STAT6,APAF1,BLM,USP2,TGR,NPSR1,CYP3A4,TIM23,BRCA1,POL,"REVERSE TRANSC
RIPTASE",HINDIIIR,NR5A1,TOP1,TOP2A,TOP2B,RAD51,HTR1B,HTR4,CISD1,LANA1,TERT,RNASE1,ALOX15,CASP9,CASP1,MMP2,ABCB1,PAX8,DHCR7,EBP,ABCC1,CHRM1,ERBB2,LCK,EPAS1,SLCO1B3,AURKA,FYN,ABCC4,NS3,HTT}

> <pathway_gtopdb>
{"Other cytosolic protein","Transcription factor",Enzyme,"Unclassified protein","Epigenetic regulator","Membrane receptor",Transporter,"Nuclear receptor",Kinase,Oxidoreductase,Transferase,Isomerase,Re
ader,Eraser,Protease,"Family A G protein-coupled receptor","Cytochrome P450",Hydrolase,"Primary active transporter","Electrochemical transporter","Nuclear hormone receptor subfamily 1","Protein Kinase
",Bromodomain,"Lysine demethylase","Cysteine protease","Peptide receptor (family A GPCR)","Cytochrome P450 family 3","Nuclear hormone receptor subfamily 5","Small molecule receptor (family A GPCR)","M
etallo protease","ATP-binding cassette","SLC superfamily of solute carriers","Nuclear hormone receptor subfamily 1 group F","CMGC protein kinase group","Nuclear hormone receptor subfamily 1 group A","
Jumonji domain-containing","Cysteine protease CA clan","Short peptide receptor (family A GPCR)","Cytochrome P450 family 3A","Nuclear hormone receptor subfamily 5 group A","Monoamine receptor","Cystein
e protease CD clan","Metallo protease MAM clan","ABCB subfamily","ABCC subfamily","TK protein kinase group","SLC21/SLCO family of organic anion transporting polypeptides","Other protein kinase group",
"Nuclear hormone receptor subfamily 1 group F member 3","CMGC protein kinase MAPK family","Nuclear hormone receptor subfamily 1 group A member 2","Cysteine protease C1A family","Cysteine protease C19 
family","Neuropeptide receptor","Cytochrome P450 3A4","Nuclear hormone receptor subfamily 5 group A member 1","Serotonin receptor","Cysteine protease C14 family","Metallo protease M10A subfamily","Ace
tylcholine receptor","Tyrosine protein kinase EGFR family","Tyrosine protein kinase Src family","Other protein kinase AUR family","CMGC protein kinase ERK1","Tyrosine protein kinase SrcA","Serine prot
ease","Serine protease PA clan","Serine protease S29 family"}

> <pathway_chembl>
{Receptors,Enzymes,"Other protein targets",Transporters,"Nuclear hormone receptors","Kinases (EC 2.7.x.x)","Chromatin modifying enzymes","Transcription factors","Peptidases and proteinases","G protein
-coupled receptors","Cytochrome P450","Heat shock proteins","DNA topoisomerases","Eicosanoid turnover","ATP-binding cassette transporter family","Catalytic receptors","SLC superfamily of solute carrie
rs","1F. Retinoic acid-related orphans","CMGC: Containing CDK",MAPK,GSK3,"CLK families","1A. Thyroid hormone receptors","1.14.11.- Histone demethylases","STAT transcription factors","CA: Cysteine (C) 
Peptidases","Neuropeptide S receptor","CYP3 family","5A. Fushi tarazu F1-like receptors","5-Hydroxytryptamine receptors",Lipoxygenases,"CD: Cysteine (C) Peptidases","MA: Metallo (M) Peptidases","ABCB 
subfamily","ABCC subfamily","Acetylcholine receptors (muscarinic)","Receptor kinases","SLCO family of organic anion transporting polypeptides","Mitogen-activated protein kinases (MAP kinases)","C19: U
biquitin-specific protease","C14: Caspase","M10: Matrix metallopeptidase","TK: Tyrosine kinase","Other protein kinases","ERK subfamily","Receptor tyrosine kinases (RTKs)","Non-receptor tyrosine kinase
s (nRTKs)","Aurora kinase (Aur) family","Type I RTKs: ErbB (epidermal growth factor) receptor family","Src family","2.1.1.43 Histone methyltransferases (HMTs)"}

> <pathway_reactome>
{"Cellular responses to external stimuli","Neuronal System","Gene expression (Transcription)","Immune System","DNA Repair","Vesicle-mediated transport","Metabolism of proteins",Metabolism,"Programmed 
Cell Death",Disease,"Cell Cycle","Signal Transduction",Autophagy,"Developmental Biology",Hemostasis,"Cellular responses to stress","Transmission across Chemical Synapses","RNA Polymerase II Transcript
ion","Innate Immune System","Base Excision Repair","Membrane Trafficking","Post-translational protein modification","Biological oxidations",Apoptosis,"DNA Double-Strand Break Repair","Infectious disea
se","Metabolism of lipids",Mitotic,"Signaling by GPCR","Chromosome Maintenance","Chaperone Mediated Autophagy","Nervous system development","Abacavir transport and metabolism","Platelet activation","s
ignaling and aggregation","Cellular response to hypoxia","Neurotransmitter receptors and postsynaptic signal transmission","Generic Transcription Pathway","Toll-like Receptor Cascades","Resolution of 
Abasic Sites (AP sites)","trans-Golgi Network Vesicle Budding",SUMOylation,"Phase I - Functionalization of compounds","Cytosolic sensors of pathogen-associated DNA","Intrinsic Pathway for Apoptosis","
Homology Directed Repair","Leishmania infection","Biosynthesis of specialized proresolving mediators (SPMs)","Mitotic G2-G2/M phases","Mitotic G1 phase and G1/S transition","GPCR ligand binding","Telo
mere Maintenance","Axon guidance","Abacavir transmembrane transport","Fatty acid metabolism","HIV Infection","Metabolism of steroids","Response to elevated platelet cytosolic Ca2+","Oxygen-dependent p
roline hydroxylation of Hypoxia-inducible Factor Alpha","Activation of NMDA receptors and postsynaptic events","Transcriptional regulation by RUNX3","Toll Like Receptor 5 (TLR5) Cascade","Resolution o
f AP sites via the multiple-nucleotide patch replacement pathway","Golgi Associated Vesicle Biogenesis","SUMO E3 ligases SUMOylate target proteins","Ethanol oxidation","STING mediated induction of hos
t immune responses","Apoptotic factor-mediated response","HDR through Homologous Recombination (HRR) or Single Strand Annealing (SSA)","Transcriptional Regulation by TP53","Leishmania parasite growth 
and survival","Biosynthesis of DHA-derived SPMs","G2/M Transition","G0 and Early G1","Class A/1 (Rhodopsin-like receptors)","Extension of Telomeres","Biosynthesis of DPA-derived SPMs","EPH-Ephrin sign
aling","Arachidonic acid metabolism","Semaphorin interactions","Host Interactions of HIV factors","Bile acid and bile salt metabolism","Platelet degranulation","Post NMDA receptor activation events","
RUNX3 Regulates Immune Response and Cell Migration","MyD88 cascade initiated on plasma membrane","PCNA-Dependent Long Patch Base Excision Repair","SUMOylation of intracellular receptors","STAT6-mediat
ed induction of chemokines","Cytochrome c-mediated apoptotic response","HDR through Homologous Recombination (HRR)","Regulation of TP53 Activity","Anti-inflammatory response favouring Leishmania paras
ite infection","Biosynthesis of maresins","Centrosome maturation","SUMOylation of DNA replication proteins","Transcription of E2F targets under negative control by DREAM complex","Amine ligand-binding
 receptors","Telomere Extension By Telomerase","Biosynthesis of DPAn-3 SPMs","TP53 Regulates Transcription of Cell Death Genes","EPH-ephrin mediated repulsion of cells","Synthesis of Leukotrienes (LT)
 and Eoxins (EX)","Sema4D in semaphorin signaling","The role of Nef in HIV-1 replication and disease pathogenesis","Recycling of bile acids and salts","Activation of AMPK downstream of NMDARs","MAP ki
nase activation","Formation of apoptosome","Homologous DNA Pairing and Strand Exchange","Regulation of TP53 Expression and Degradation","ADORA2B mediated anti-inflammatory cytokines production","Biosy
nthesis of maresin-like SPMs","Loss of proteins required for interphase microtubule organization from the centrosome","Serotonin receptors","Biosynthesis of DPAn-3-derived protectins and resolvins","T
P53 Regulates Transcription of Caspase Activators and Caspases","Muscarinic acetylcholine receptors","Sema4D induced cell migration and growth-cone collapse","Nef-mediates down modulation of cell surf
ace receptors by recruiting them to clathrin adapters","Regulation of TP53 Activity through Phosphorylation","Nef and signal transduction","MAPK targets/ Nuclear events mediated by MAP kinases","Regul
ation of the apoptosome activity","Presynaptic phase of homologous DNA pairing and strand exchange","Regulation of TP53 Degradation","Loss of Nlp from mitotic centrosomes","Nef Mediated CD4 Down-regul
ation","ERK/MAPK targets","ERKs are inactivated","Transcriptional Regulation by MECP2","Transcriptional regulation by RUNX1","Regulation of MECP2 expression and activity","RUNX1 regulates genes involv
ed in megakaryocyte differentiation and platelet function"}

> <broad_targets>
{CHD1,TOP2A}

> <broad_moa>
{"topoisomerase inhibitor"}

> <synonyms>
{"ADM hydrochloride",25316-40-9,25316409,"Hydroxydaunorubicin hydrochloride","Epirubicin HCl","FI 6804","4-epi-Adriamycin hydrochloride","4'epiAdriamycin hydrochloride",56390-09-1,56390091,MLS00270210
7,"DOX HCl",NSC123127,"Doxorubicin, Hydrochloride",14-Hydroxydaunorubicin,14Hydroxydaunorubicin,"Doxorubicin hydrochloride_AOD",T0125,T1020,123127,NSC256942,"NSC 123127","Epirubicin hydrochloride","Do
xorubicin hydrochloride"}

> <pdid>
PD000383

> <targets>
{}

> <classes>
{"Topoisomerase II Inhibitors"}

> <pubchem_cids>
{32874,5458238,68441416}

$$$$
NCI_AOD5_2014
  SciTegic11012412592D

 32 34  0  0  0  0            999 V2000
   10.3996   -1.4837    0.0000 O   0  0
    9.0990   -0.7364    0.0000 C   0  0
    7.8003   -1.4887    0.0000 C   0  0
    6.4990   -0.7409    0.0000 N   0  0
    5.2003   -1.4932    0.0000 C   0  0
    3.8990   -0.7455    0.0000 C   0  0
    2.6003   -1.4977    0.0000 N   0  0
    1.2990   -0.7500    0.0000 C   0  0
    1.2990    0.7500    0.0000 C   0  0
    0.0000    1.5000    0.0000 C   0  0
   -1.2990    0.7500    0.0000 C   0  0
   -2.5973    1.5031    0.0000 N   0  0
   -2.5951    3.0039    0.0000 C   0  0
   -3.8933    3.7570    0.0000 C   0  0
   -3.8912    5.2578    0.0000 N   0  0
   -5.1894    6.0109    0.0000 C   0  0
   -5.1873    7.5117    0.0000 C   0  0
   -6.4848    8.2644    0.0000 O   0  0
   -1.2990   -0.7500    0.0000 C   0  0
   -2.5981   -1.5000    0.0000 C   0  0
   -3.8971   -0.7500    0.0000 O   0  0
   -2.5981   -3.0000    0.0000 C   0  0
   -3.8971   -3.7500    0.0000 C   0  0
   -5.1961   -3.0000    0.0000 O   0  0
   -3.8971   -5.2500    0.0000 C   0  0
   -2.5980   -6.0000    0.0000 C   0  0
   -1.2990   -5.2500    0.0000 C   0  0
    0.0000   -6.0000    0.0000 O   0  0
   -1.2990   -3.7500    0.0000 C   0  0
    0.0000   -3.0000    0.0000 C   0  0
    1.2991   -3.7500    0.0000 O   0  0
    0.0000   -1.5000    0.0000 C   0  0
  1  2  1  0
  2  3  1  0
  3  4  1  0
  4  5  1  0
  5  6  1  0
  6  7  1  0
  7  8  1  0
  8  9  2  0
  9 10  1  0
 10 11  2  0
 11 12  1  0
 12 13  1  0
 13 14  1  0
 14 15  1  0
 15 16  1  0
 16 17  1  0
 17 18  1  0
 11 19  1  0
 19 20  1  0
 20 21  2  0
 20 22  1  0
 22 23  2  0
 23 24  1  0
 23 25  1  0
 25 26  2  0
 26 27  1  0
 27 28  1  0
 27 29  2  0
 29 22  1  0
 29 30  1  0
 30 31  2  0
 30 32  1  0
 32  8  1  0
 32 19  2  0
M  END
> <name>
NCI_AOD5_2014

> <id>
2586

> <plate>
NCI_V5_A

> <well>
D05

> <supplier_cmpd_name>
Mitoxantrone

> <ctcr_id>
6514

> <supplier_cmpd_id>
279836

> <smiles>
OCCNCCNc1ccc(NCCNCCO)c2C(=O)c3c(O)ccc(O)c3C(=O)c12

> <pd_targets>
{NFKB1,STK33,ALOX15,UBA3,USP2,CSNK2A1,CSNK2A2,CSNK2A3,CSNK2B,MAPT,ROS1,MAPK1,BLM,NPSR1,MPG,KMT2A,MEN1,KDM4E,L3MBTL1,ALD,TP53,LMNA,RECQL,FTL,POLB,DYRK1A,PIM1,APEX1,RORC,PMP22,NFO,ALDH1A1,TOP2A,CHRM1,SL
CO1B3,BTK,CYP2D6,HIF1A,PKM,CYP1A2,POL,LANA1,THPO,IMPA1,BLA(TEM-2),NSD2,HTT,CYP3A4,PYK,SLC22A1,ABCB1,PAX8,ERBB2,HTR2C,CHRM2,ABCC1,MTOR,KCNH2,CHRM4,SLC22A2,NAE1,FYN,SLC47A2,SLC6A2,SLC47A1,CACNA1C,CACNA1
D,CACNA1F,CACNA1S,ABCG2,EGFR,SLC22A3}

> <pathway_gtopdb>
{"Other cytosolic protein",Enzyme,"Membrane receptor","Epigenetic regulator","Transcription factor","Other nuclear protein","Unclassified protein",Transporter,"Ion channel",Kinase,Oxidoreductase,Ligas
e,Protease,"Family A G protein-coupled receptor",Reader,Eraser,"Nuclear receptor",Hydrolase,Isomerase,"Electrochemical transporter","Cytochrome P450",Writer,Transferase,"Primary active transporter","V
oltage-gated ion channel","Protein Kinase","Cysteine protease","Peptide receptor (family A GPCR)",Bromodomain,"Lysine demethylase","Methyl-lysine/arginine binding protein","Nuclear hormone receptor su
bfamily 1","Small molecule receptor (family A GPCR)","SLC superfamily of solute carriers","Cytochrome P450 family 2","Cytochrome P450 family 1","Protein methyltransferase","Cytochrome P450 family 3","
ATP-binding cassette","Potassium channels","Voltage-gated calcium channel","CAMK protein kinase group","Cysteine protease CA clan","Other protein kinase group","TK protein kinase group","CMGC protein 
kinase group","Short peptide receptor (family A GPCR)","Jumonji domain-containing","MBT domain","Nuclear hormone receptor subfamily 1 group F","Monoamine receptor","SLC21/SLCO family of organic anion 
transporting polypeptides","Cytochrome P450 family 2D","Cytochrome P450 family 1A","SET domain","Cytochrome P450 family 3A","SLC22 family of organic cation and anion transporters","ABCB subfamily","AB
CC subfamily","Atypical protein kinase group","Voltage-gated potassium channel","SLC47 family of multidrug and toxin extrusion transporters","SLC06 neurotransmitter transporter family","ABCG subfamily
","CAMK protein kinase unique family","Cysteine protease C19 family","Other protein kinase CK2 family","Tyrosine protein kinase Sev family","CMGC protein kinase MAPK family","Neuropeptide receptor","C
MGC protein kinase DYRK family","CAMK protein kinase PIM family","Nuclear hormone receptor subfamily 1 group F member 3","Acetylcholine receptor","Tyrosine protein kinase Tec family","Cytochrome P450 
2D6","Cytochrome P450 1A1","Cytochrome P450 3A4","Tyrosine protein kinase EGFR family","Serotonin receptor","Atypical protein kinase PIKK family","Tyrosine protein kinase Src family","CMGC protein kin
ase ERK1","CMGC protein kinase Dyrk1 subfamily","Atypical protein kinase FRAP subfamily","Tyrosine protein kinase SrcA"}

> <pathway_chembl>
{Enzymes,Receptors,Transporters,"Ion channels","Kinases (EC 2.7.x.x)","Eicosanoid turnover","Peptidases and proteinases","Catalytic receptors","G protein-coupled receptors","Chromatin modifying enzyme
s","Nuclear hormone receptors","DNA topoisomerases","SLC superfamily of solute carriers","Cytochrome P450","2.7.1.40 Pyruvate kinases","Inositol phosphate turnover","ATP-binding cassette transporter f
amily","Voltage-gated ion channels","CAMK: Calcium/calmodulin-dependent protein kinases",Lipoxygenases,"CA: Cysteine (C) Peptidases","Receptor kinases","CMGC: Containing CDK",MAPK,GSK3,"CLK families",
"Neuropeptide S receptor","1.14.11.- Histone demethylases","2.1.1.43 Histone methyltransferases (HMTs)","1F. Retinoic acid-related orphans","Acetylcholine receptors (muscarinic)","SLCO family of organ
ic anion transporting polypeptides","CYP2 family: drug metabolising subset","CYP1 family","Inositol monophosphatase","CYP3 family","SLC22 family of organic cation and anion transporters","ABCB subfami
ly","5-Hydroxytryptamine receptors","ABCC subfamily",Atypical,"Potassium channels","SLC47 family of multidrug and toxin extrusion transporters","SLC6 neurotransmitter transporter family","ABCG subfami
ly","CAMK-unique family","C19: Ubiquitin-specific protease","TK: Tyrosine kinase","Mitogen-activated protein kinases (MAP kinases)","Dual-specificity tyrosine-(Y)-phosphorylation regulated kinase (DYR
K) family","PIM family","Organic cation transporters (OCT)","Phosphatidyl inositol 3' kinase-related kinases (PIKK) family","Voltage-gated potassium channels","Monoamine transporter subfamily","Recept
or tyrosine kinases (RTKs)","ERK subfamily","Dyrk1 subfamily","Non-receptor tyrosine kinases (nRTKs)","FRAP subfamily","Type XVII RTKs: ROS receptors","Tec family","Type I RTKs: ErbB (epidermal growth
 factor) receptor family","Src family"}

> <pathway_reactome>
{"Immune System",Metabolism,"Gene expression (Transcription)","Neuronal System","DNA Repair",Disease,"Cell Cycle","Vesicle-mediated transport","Developmental Biology","Signal Transduction","Cellular r
esponses to external stimuli",Hemostasis,"Transport of small molecules","Muscle contraction","Cytokine Signaling in Immune system","Metabolism of lipids","Innate Immune System","RNA Polymerase II Tran
scription","Transmission across Chemical Synapses","DNA Double-Strand Break Repair","Infectious disease","Base Excision Repair","Cell Cycle Checkpoints",Mitotic,"Membrane Trafficking","Diseases of sig
nal transduction by growth factor receptors and second messengers","Nervous system development","Biological oxidations","Signaling by GPCR","Cellular responses to stress","Metabolism of carbohydrates"
,"Platelet activation","signaling and aggregation","Inositol phosphate metabolism","SLC-mediated transmembrane transport","Abacavir transport and metabolism","Cardiac conduction","Disorders of transme
mbrane transporters","Signaling by Interleukins","Biosynthesis of specialized proresolving mediators (SPMs)","C-type lectin receptors (CLRs)","Generic Transcription Pathway","Neurotransmitter receptor
s and postsynaptic signal transmission","Toll-like Receptor Cascades","Homology Directed Repair","Leishmania infection","Base-Excision Repair","AP Site Formation","G1/S DNA Damage Checkpoints","M Phas
e","trans-Golgi Network Vesicle Budding","Resolution of Abasic Sites (AP sites)","Mitotic G1 phase and G1/S transition","FLT3 signaling in disease","EGR2 and SOX10-mediated initiation of Schwann cell 
myelination","Phase I - Functionalization of compounds","GPCR ligand binding","Metabolism of steroids","Cellular response to hypoxia","Glucose metabolism","Platelet Aggregation (Plug Formation)","Synt
hesis of IP2",IP,"and Ins in the cytosol","Transport of bile salts and organic acids","metal ions and amine compounds","Abacavir transmembrane transport","Axon guidance","Fatty acid metabolism","Phase
 3 - rapid repolarisation","HIV Infection","SLC transporter disorders","GPCR downstream signalling","Interleukin-1 family signaling","Biosynthesis of DPA-derived SPMs","CLEC7A (Dectin-1) signaling","T
ranscriptional Regulation by TP53","Activation of NMDA receptors and postsynaptic events","Toll Like Receptor 5 (TLR5) Cascade","HDR through Homologous Recombination (HRR) or Single Strand Annealing (
SSA)","Leishmania parasite growth and survival",Depurination,"p53-Dependent G1/S DNA damage checkpoint","Mitotic Metaphase and Anaphase","Golgi Associated Vesicle Biogenesis","Resolution of AP sites v
ia the multiple-nucleotide patch replacement pathway","G0 and Early G1","Signaling by FLT3 ITD and TKD mutants","Transcriptional regulation by RUNX1","Transcriptional regulation by RUNX3","Ethanol oxi
dation","Class A/1 (Rhodopsin-like receptors)","Bile acid and bile salt metabolism","Parasite infection","Cytochrome P450 - arranged by substrate type","Oxygen-dependent proline hydroxylation of Hypox
ia-inducible Factor Alpha",Glycolysis,"Transcriptional Regulation by MECP2","Biosynthesis of DHA-derived SPMs","Organic cation/anion/zwitterion transport","Semaphorin interactions","Arachidonic acid m
etabolism","Host Interactions of HIV factors","Defective SLC6A2 causes orthostatic intolerance (OI)","G alpha (q) signalling events","Interleukin-1 signaling","Biosynthesis of DPAn-3 SPMs","Dectin-1 m
ediated noncanonical NF-kB signaling","Regulation of TP53 Activity","Post NMDA receptor activation events","MyD88 cascade initiated on plasma membrane","HDR through Homologous Recombination (HRR)","An
ti-inflammatory response favouring Leishmania parasite infection","Cleavage of the damaged purine","p53-Dependent G1 DNA Damage Response","Mitotic Anaphase","PCNA-Dependent Long Patch Base Excision Re
pair","STAT5 activation downstream of FLT3 ITD mutants","RUNX1 regulates genes involved in megakaryocyte differentiation and platelet function","RUNX3 Regulates Immune Response and Cell Migration","Tr
anscription of E2F targets under negative control by DREAM complex","Amine ligand-binding receptors","Recycling of bile acids and salts","Leishmania phagocytosis",Xenobiotics,"Processing of DNA double
-strand break ends","Regulation of MECP2 expression and activity","Biosynthesis of maresins","Organic cation transport","Sema4D in semaphorin signaling","Synthesis of Leukotrienes (LT) and Eoxins (EX)
","The role of Nef in HIV-1 replication and disease pathogenesis","Gastrin-CREB signalling pathway via PKC and MAPK","MAP3K8 (TPL2)-dependent MAPK1/3 activation","Biosynthesis of DPAn-3-derived protec
tins and resolvins","Regulation of TP53 Expression and Degradation","Activation of AMPK downstream of NMDARs","MAP kinase activation","Homologous DNA Pairing and Strand Exchange","ADORA2B mediated ant
i-inflammatory cytokines production","Regulation of TP53 Activity through Methylation","Stabilization of p53","Nuclear Envelope (NE) Reassembly","Muscarinic acetylcholine receptors","FCGR3A-mediated p
hagocytosis","CYP2E1 reactions","Aromatic amines can be N-hydroxylated or N-dealkylated by CYP1A2","Biosynthesis of maresin-like SPMs","Sema4D induced cell migration and growth-cone collapse","Seroton
in receptors","Nef and signal transduction","EGFR Transactivation by Gastrin","Regulation of TP53 Degradation","MAPK targets/ Nuclear events mediated by MAP kinases","Presynaptic phase of homologous D
NA pairing and strand exchange","Autodegradation of the E3 ubiquitin ligase COP1","Initiation of Nuclear Envelope (NE) Reformation","ERK/MAPK targets","ERKs are inactivated"}

> <broad_targets>
{TOP2A}

> <broad_moa>
{"topoisomerase inhibitor"}

> <synonyms>
{mitoxantrone,65271-80-9,65271809,Mitoxanthrone,Mitozantrone,DHAQ,Dihydroxyanthraquinone,Mitoxantron,Novantrone,Mitoxantrona,Mitoxantronum,"NSC 279836",UNII-BZ114NVM5P,UNIIBZ114NVM5P,DHAD,NSC279836,NS
C-279836,"Mitoxantrone free base",1,4-Bis(2-(2-hydroxyethylamino)e,4Bis(2(2hydroxyethylamino)e,T6588,279836,Mitoxantrone}

> <pdid>
PD004112

> <targets>
{}

> <classes>
{"Topoisomerase Inhibitor"}

> <pubchem_cids>
{4212}

$$$$
NCI_AOD5_2014
  SciTegic11012412592D

 34 36  0  0  1  0            999 V2000
    8.8701    2.9112    0.0000 Na  0  3
    2.6640   -0.1280    0.0000 C   0  0
    1.2990   -0.7500    0.0000 C   0  0  2  0  0  0
    1.2990    0.7500    0.0000 C   0  0
    0.0000    1.5000    0.0000 C   0  0
   -1.2990    0.7500    0.0000 C   0  0  1  0  0  0
   -1.2990   -0.7500    0.0000 C   0  0  1  0  0  0
   -2.5981   -1.5000    0.0000 C   0  0
   -3.8971   -0.7500    0.0000 C   0  0
   -3.8971    0.7500    0.0000 C   0  0
   -5.1962    1.5000    0.0000 C   0  0
   -5.1962    3.0000    0.0000 C   0  0
   -6.4944    3.7531    0.0000 O   0  0
   -6.4922    5.2539    0.0000 C   0  0
   -5.1919    6.0016    0.0000 O   0  0
   -7.7905    6.0070    0.0000 N   0  0
   -7.7883    7.5078    0.0000 C   0  0
   -9.0865    8.2609    0.0000 C   0  0
   -9.0844    9.7609    0.0000 Cl  0  0
   -9.0931    5.2615    0.0000 C   0  0
  -10.3904    6.0160    0.0000 C   0  0
  -11.6923    5.2710    0.0000 Cl  0  0
   -3.8971    3.7500    0.0000 C   0  0
   -2.5981    3.0000    0.0000 C   0  0
   -2.5981    1.5000    0.0000 C   0  0
    0.0000   -1.5000    0.0000 C   0  0  2  0  0  0
    0.3326   -2.9571    0.0000 C   0  0
    1.8253   -3.1044    0.0000 C   0  0
    2.4266   -1.7302    0.0000 C   0  0  2  0  0  0
    3.8887   -1.4031    0.0000 O   0  0
    4.9055   -2.5070    0.0000 P   0  0
    4.4576   -3.9386    0.0000 O   0  0
    5.9212   -3.6108    0.0000 O   0  0
    6.3693   -2.1795    0.0000 O   0  0
  3  2  1  1
  3  4  1  0
  4  5  1  0
  6  5  1  1
  6  7  1  0
  7  8  1  6
  8  9  1  0
  9 10  1  0
 10 11  2  0
 11 12  1  0
 12 13  1  0
 13 14  1  0
 14 15  2  0
 14 16  1  0
 16 17  1  0
 17 18  1  0
 18 19  1  0
 16 20  1  0
 20 21  1  0
 21 22  1  0
 12 23  2  0
 23 24  1  0
 24 25  2  0
 25  6  1  0
 25 10  1  0
  7 26  1  0
 26  3  1  0
 26 27  1  1
 27 28  1  0
 28 29  1  0
 29  3  1  0
 29 30  1  1
 30 31  1  0
 31 32  1  0
 31 33  1  0
 31 34  2  0
M  CHG  1   1   1
M  END
> <name>
NCI_AOD5_2014

> <id>
2587

> <plate>
NCI_V5_A

> <well>
D06

> <supplier_cmpd_name>
Estramustine phosphate sodium

> <ctcr_id>
1041

> <supplier_cmpd_id>
702294

> <smiles>
[Na+].C[C@]12CC[C@H]3[C@@H](CCc4cc(OC(=O)N(CCCl)CCCl)ccc34)[C@@H]1CC[C@@H]2O[P](O)(O)=O

> <pd_targets>
{PTPN6,PTPN11,PTPN1,ESR2}

> <pathway_gtopdb>
{Enzyme,"Transcription factor",Phosphatase,"Nuclear receptor","Protein Phosphatase","Nuclear hormone receptor subfamily 3","Tyrosine protein phosphatase","Nuclear hormone receptor subfamily 3 group A"
,"Nuclear hormone receptor subfamily 3 group A member 2"}

> <pathway_chembl>
{Enzymes,Receptors,Phosphatases,"Nuclear hormone receptors","Protein tyrosine phosphatases non-receptor type (PTPN)","Steroid hormone receptors","3A. Estrogen receptors"}

> <pathway_reactome>
{"Immune System","Gene expression (Transcription)","Signal Transduction","Cytokine Signaling in Immune system","Innate Immune System","RNA Polymerase II Transcription","Intracellular signaling by seco
nd messengers","Interferon Signaling","Toll-like Receptor Cascades","Generic Transcription Pathway","PIP3 activates AKT signaling","Interferon alpha/beta signaling","Toll Like Receptor 4 (TLR4) Cascad
e","Transcriptional Regulation by MECP2","Negative regulation of the PI3K/AKT network","Regulation of IFNA signaling","MyD88-independent TLR4 cascade","MECP2 regulates neuronal receptors and channels"
,PI5P,"PP2A and IER3 Regulate PI3K/AKT Signaling","TRIF(TICAM1)-mediated TLR4 signaling","Activation of IRF3/IRF7 mediated by TBK1/IKK epsilon"}

> <broad_targets>
{ESR1,ESR2,MAP1A,MAP2}

> <broad_moa>
{"DNA synthesis inhibitor","microtubule inhibitor"}

> <synonyms>
{"Emcyt (Pharmacia)","Estramustine disodium phosphate",NSC702294,NSC-702294,702294,"NSC 702294","Estramustine phosphate sodium"}

> <pdid>
PD014231

> <targets>
{}

> <classes>
{"Alkylating agent"}

> <pubchem_cids>
{54611422}

$$$$
NCI_AOD5_2014
  SciTegic11012412592D

 27 29  0  0  0  0            999 V2000
    2.5983   -3.0004    0.0000 C   0  0
    2.5988   -1.5004    0.0000 S   0  0
    3.8983   -0.7512    0.0000 O   0  0
    3.8975   -2.2510    0.0000 O   0  0
    1.2990   -0.7500    0.0000 C   0  0
    1.2990    0.7500    0.0000 C   0  0
    0.0000    1.5000    0.0000 C   0  0
   -1.2990    0.7500    0.0000 C   0  0
   -1.2990   -0.7500    0.0000 C   0  0
   -2.5981   -1.5000    0.0000 Cl  0  0
    0.0000   -1.5000    0.0000 C   0  0
   -2.5973    1.5031    0.0000 C   0  0
   -3.8976    0.7553    0.0000 O   0  0
   -2.5951    3.0039    0.0000 N   0  0
   -3.8933    3.7570    0.0000 C   0  0
   -3.8934    5.2570    0.0000 C   0  0
   -5.1924    6.0070    0.0000 C   0  0
   -6.4915    5.2571    0.0000 C   0  0
   -7.7905    6.0071    0.0000 Cl  0  0
   -6.4915    3.7571    0.0000 C   0  0
   -5.1925    3.0070    0.0000 C   0  0
   -7.7912    3.0067    0.0000 C   0  0
   -9.0915    3.7546    0.0000 C   0  0
  -10.3894    3.0026    0.0000 C   0  0
  -10.3870    1.5026    0.0000 C   0  0
   -9.0868    0.7546    0.0000 C   0  0
   -7.7890    1.5067    0.0000 N   0  0
  1  2  1  0
  2  3  2  0
  2  4  2  0
  2  5  1  0
  5  6  2  0
  6  7  1  0
  7  8  2  0
  8  9  1  0
  9 10  1  0
  9 11  2  0
 11  5  1  0
  8 12  1  0
 12 13  2  0
 12 14  1  0
 14 15  1  0
 15 16  2  0
 16 17  1  0
 17 18  2  0
 18 19  1  0
 18 20  1  0
 20 21  2  0
 21 15  1  0
 20 22  1  0
 22 23  2  0
 23 24  1  0
 24 25  2  0
 25 26  1  0
 26 27  2  0
 27 22  1  0
M  END
> <name>
NCI_AOD5_2014

> <id>
2588

> <plate>
NCI_V5_A

> <well>
D07

> <supplier_cmpd_name>
Vismodegib

> <ctcr_id>
5334

> <supplier_cmpd_id>
755986

> <smiles>
C[S](=O)(=O)c1ccc(c(Cl)c1)C(=O)Nc2ccc(Cl)c(c2)c3ccccn3

> <pd_targets>
{ALB,SMO,SHH}

> <pathway_gtopdb>
{"Secreted protein","Membrane receptor","Unclassified protein","Frizzled family G protein-coupled receptor","Smoothened receptor (frizzled family GPCR)"}

> <pathway_chembl>
{Receptors,"G protein-coupled receptors","Class Frizzled GPCRs"}

> <pathway_reactome>
{Metabolism,"Organelle biogenesis and maintenance",Disease,"Metabolism of lipids","Cilium Assembly","Diseases of signal transduction by growth factor receptors and second messengers","Metabolism of st
eroids","Cargo trafficking to the periciliary membrane","Hh mutants abrogate ligand secretion","Bile acid and bile salt metabolism","BBSome-mediated cargo-targeting to cilium","HHAT G278V doesn't palm
itoylate Hh-Np","Recycling of bile acids and salts"}

> <broad_targets>
{SMO}

> <broad_moa>
{"hedgehog pathway inhibitor","smoothened receptor antagonist"}

> <synonyms>
{DC044,Vismodegib,879085-55-9,879085559,GDC-0449,GDC0449,Erivedge,2-chloro-N-(4-chloro-3-(pyridin-2-yl)phenyl)-4-(methylsulfonyl)benzamide,2chloroN(4chloro3(pyridin2yl)phenyl)4(methylsulfonyl)benzamid
e,"Vismodegib (GDC-0449)","Vismodegib (GDC0449)",HhAntag691,"GDC 0449","GDC-0449 (Vismodegib)","GDC0449 (Vismodegib)",UNII-25X868M3DS,UNII25X868M3DS,NSC-747691,NSC747691,2-Chloro-N-(4-chloro-3-(2-p,2C
hloroN(4chloro3(2p,T2590,755986,S1082,"NSC 755986"}

> <pdid>
PD004109

> <targets>
{Hedgehog,P-gp,Hedgehog Signaling Pathway,Autophagy}

> <classes>
{Smoothened Receptor Antagonist,Neuronal Signaling,Autophagy,Stem Cell/Wnt}

> <pubchem_cids>
{24776445}

$$$$
NCI_AOD5_2014
  SciTegic11012412592D

 28 31  0  0  0  0            999 V2000
    7.7947   -3.0293    0.0000 C   0  0
    6.4915   -3.7721    0.0000 N   0  0
    5.1954   -3.0153    0.0000 C   0  0
    5.2033   -1.5153    0.0000 O   0  0
    3.8915   -3.7585    0.0000 C   0  0
    3.8864   -5.2585    0.0000 C   0  0
    2.5847   -6.0040    0.0000 C   0  0
    1.2883   -5.2495    0.0000 C   0  0
    1.2935   -3.7495    0.0000 C   0  0
    2.5951   -3.0039    0.0000 C   0  0
    2.5973   -1.5031    0.0000 S   0  0
    1.2990   -0.7500    0.0000 C   0  0
    1.2990    0.7500    0.0000 C   0  0
    0.0000    1.5000    0.0000 C   0  0
   -1.2990    0.7500    0.0000 C   0  0
   -1.2990   -0.7500    0.0000 C   0  0
   -2.7248   -1.2135    0.0000 N   0  0
   -3.6065    0.0000    0.0000 N   0  0
   -2.7248    1.2135    0.0000 C   0  0
   -3.1905    2.6376    0.0000 C   0  0
   -4.6589    2.9478    0.0000 C   0  0
   -5.1253    4.3743    0.0000 C   0  0
   -6.5925    4.6865    0.0000 C   0  0
   -7.0558    6.1131    0.0000 C   0  0
   -6.0520    7.2277    0.0000 C   0  0
   -4.5848    6.9156    0.0000 C   0  0
   -4.1215    5.4889    0.0000 N   0  0
    0.0000   -1.5000    0.0000 C   0  0
  1  2  1  0
  2  3  1  0
  3  4  2  0
  3  5  1  0
  5  6  2  0
  6  7  1  0
  7  8  2  0
  8  9  1  0
  9 10  2  0
 10  5  1  0
 10 11  1  0
 11 12  1  0
 12 13  2  0
 13 14  1  0
 14 15  2  0
 15 16  1  0
 16 17  1  0
 17 18  1  0
 18 19  2  0
 19 15  1  0
 19 20  1  0
 20 21  2  0
 21 22  1  0
 22 23  2  0
 23 24  1  0
 24 25  2  0
 25 26  1  0
 26 27  2  0
 27 22  1  0
 16 28  2  0
 28 12  1  0
M  END
> <name>
NCI_AOD5_2014

> <id>
2589

> <plate>
NCI_V5_A

> <well>
D08

> <supplier_cmpd_name>
Axitinib

> <ctcr_id>
2805

> <supplier_cmpd_id>
757441

> <smiles>
CNC(=O)c1ccccc1Sc2ccc3c([nH]nc3\C=C\c4ccccn4)c2

> <pd_targets>
{MARK2,MAP3K20,CDK2,FLT1,PDPK1,DCLK1,ALK,AXL,LCK,SRPK1,TYK2,PKN2,STK3,TBK1,CSNK2A1,PDGFRA,CAMK2D,NTRK2,MAP4K5,RET,PRKAA1,PDGFRB,IRAK1,PAK4,MAP4K2,TSSK1B,IKBKE,BRSK1,RPS6KA3,MAP4K4,MET,KIT,AURKA,BLK,MK
NK2,SLK,PLK4,PHKG2,LYN,FGFR1,CSF1R,MAPK14,LIMK1,ABL1,FLT4,FGFR3,MST1R,CAMK2G,RPS6KB1,LRRK2,ROCK2,KDR,AURKB,MARK3,MINK1,GAK,MAP3K4,FLT3,HUNK,AAK1,TNIK,GRK4,BMPR1B,DDR2,MAPK8,JAK3,EGFR,STK4,RIPK1,NUAK2,
YES1,TESK1,SRPK3,MAP3K9,ACVR2B,ULK2,BMP2K,MAP3K19,ANKK1,MYLK3,CAMKK2,RIPK2,EIF2AK2,MAP4K3,STK16,DDR1,CDKL2,AURKC,CSNK2A2,TIE1,CDK16,RIPK4,FGFR2,CDC42BPB,ABL2,JAK2,MYO3A,SIK1,RIOK3,MAP2K1,TTK,MAPK10,RO
S1,TNK1,MAP4K1,MAP2K2,RIOK1,MYLK2,MERTK,ULK3,TXK,MAP3K12,MAP2K5,STK10,MAP3K3,FGR,CSK,CAMKK1,EPHB6,NTRK1,TEK,ITK,TNK2}

> <pathway_gtopdb>
{Enzyme,"Unclassified protein",Kinase,"Protein Kinase","CAMK protein kinase group","TKL protein kinase group","CMGC protein kinase group","TK protein kinase group","AGC protein kinase group","STE prot
ein kinase group","Other protein kinase group","Atypical protein kinase group","CAMK protein kinase CAMK1 family","TKL protein kinase MLK family","CMGC protein kinase CDK family","Tyrosine protein kin
ase VEGFR family","AGC protein kinase PDK1 subfamily","CAMK protein kinase DCAMK1 family","TKL protein kinase STKR family","Tyrosine protein kinase Axl family","Tyrosine protein kinase Src family","CM
GC protein kinase SRPK family","Tyrosine protein kinase JakA family","AGC protein kinase PKN family","STE protein kinase STE20 family","Other protein kinase IKK family","Other protein kinase CK2 famil
y","Tyrosine protein kinase PDGFR family","CAMK protein kinase CAMK2 family","Tyrosine protein kinase Trk family","Tyrosine protein kinase Ret family","TKL protein kinase IRAK family","CAMK protein ki
nase TSSK family","AGC protein kinase RSK family","Tyrosine protein kinase Met family","Other protein kinase AUR family","CAMK protein kinase MAPKAPK family","Other protein kinase PLK family","CAMK pr
otein kinase PHk family","Tyrosine protein kinase FGFR family","CMGC protein kinase MAPK family","TKL protein kinase LISK family","Tyrosine protein kinase Abl family","TKL protein kinase LRRK family",
"AGC protein kinase DMPK family","Other protein kinase NAK family","STE protein kinase STE11 family","AGC protein kinase GRK family","Tyrosine protein kinase DDR family","Tyrosine protein kinase EGFR 
family","TKL protein kinase RIPK family","Other protein kinase ULK family","CAMK protein kinase MLCK family","Other protein kinase CAMKK family","Other protein kinase PEK family","CMGC protein kinase 
CDKL family","Tyrosine protein kinase Tie family","Atypical protein kinase RIO family","STE protein kinase STE7 family","Other protein kinase TTK family","Tyrosine protein kinase Sev family","Tyrosine
 protein kinase Ack family","Tyrosine protein kinase Tec family","Tyrosine protein kinase Csk family","CAMK protein kinase MARK subfamily","TKL protein kinase MLK subfamily","CMGC protein kinase CDC2 
subfamily","TKL protein kinase STKR Type 1 subfamily","STE protein kinase MST subfamily","STE protein kinase KHS subfamily","CAMK protein kinase AMPK subfamily","STE protein kinase PAKB subfamily","CA
MK protein kinase BRSK subfamily","AGC protein kinase RSK subfamily","STE protein kinase MSN subfamily","CAMK protein kinase MNK subfamily","STE protein kinase SLK subfamily","CMGC protein kinase p38 
subfamily","TKL protein kinase LIMK subfamily","AGC protein kinase p70 subfamily","AGC protein kinase ROCK subfamily","AGC protein kinase GRK subfamily","CMGC protein kinase JNK subfamily","CAMK prote
in kinase NuaK subfamily","TKL protein kinase TESK subfamily","TKL protein kinase STKR Type 2 subfamily","Other protein kinase Meta subfamily","Other protein kinase PKR","CMGC protein kinase TAIRE sub
family","AGC protein kinase GEK subfamily","STE protein kinase NinaC subfamily","CAMK protein kinase QIK subfamily","Atypical protein kinase RIO3 subfamily","Atypical protein kinase RIO1 subfamily","S
TE protein kinase MEKK2"}

> <pathway_chembl>
{Enzymes,Receptors,"Kinases (EC 2.7.x.x)","Catalytic receptors","CAMK: Calcium/calmodulin-dependent protein kinases","Receptor kinases","CMGC: Containing CDK",MAPK,GSK3,"CLK families","AGC: Containing
 PKA",PKG,"PKC families","STE: Homologs of yeast Sterile 7","Sterile 11","Sterile 20 kinases",Atypical,"CAMK-like (CAMKL) family","TKL: Tyrosine kinase-like","Cyclin-dependent kinase (CDK) family","TK
: Tyrosine kinase","PDK1 family","DCAMKL family","SRPK family","Protein kinase N (PKN) family","STE20 family","Other protein kinases","CAMK2 family","Testis specific kinase (TSSK) family","RSK family"
,"MAPK-Activated Protein Kinase (MAPKAPK) family","Phosphorylase kinase (PHK) family","Mitogen-activated protein kinases (MAP kinases)","DMPK family","STE11 family","G protein-coupled receptor kinases
 (GRKs)","Myosin Light Chain Kinase (MLCK) family","Cyclin-dependent kinase-like (CDKL) family","RIO family","STE7 family","MARK subfamily","Mixed Lineage Kinase (MLK) family","CDK1 subfamily","Recept
or tyrosine kinases (RTKs)","Non-receptor tyrosine kinases (nRTKs)","MST subfamily","IKK family","Casein kinase 2 (CK2) family","KHS subfamily","AMPK subfamily","Interleukin-1 receptor-associated kina
se (IRAK) family","PAKB subfamily","BRSK subfamily","RSK subfamily","MSN subfamily","Aurora kinase (Aur) family","MKN subfamily","SLK subfamily","Polo-like kinase (PLK) family","p38 subfamily","LIM do
main kinase (LISK) family","p70 subfamily","Leucine-rich repeat kinase (LRRK) family","Rho kinase","Numb-associated kinase (NAK) family","HUNK subfamily","NAK family","GRK4 subfamily","Receptor serine
/threonine kinase (RSTK) family","JNK subfamily","Receptor interacting protein kinase (RIPK) family","NuaK subfamily","Unc-51-like kinase (ULK) family","STE20 subfamily","CAMKK family","PEK family","T
AIRE subfamily","GEK subfamily","NinaC subfamily","QIK subfamily","RIO3 subfamily","TTK family","RIO1 subfamily","MLK subfamily","Type IV RTKs: VEGF (vascular endothelial growth factor) receptor famil
y","Type XIX RTKs: Leukocyte tyrosine kinase (LTK) receptor family","Type XI RTKs: TAM (TYRO3-","AXL- and MER-TK) receptor family","Src family","Janus kinase (JakA) family","Type III RTKs: PDGFR",CSFR
,Kit,"FLT3 receptor family","Type VII RTKs: Neurotrophin receptor/Trk family","Type XIV RTKs: RET","Type X RTKs: HGF (hepatocyte growth factor) receptor family","Type V RTKs: FGF (fibroblast growth fa
ctor) receptor family","LIMK subfamily","Abl family","Type I receptor serine/threonine kinases","Type XVI RTKs: DDR (collagen receptor) family","Type I RTKs: ErbB (epidermal growth factor) receptor fa
mily","TESK subfamily","Type II receptor serine/threonine kinases","Meta subfamily","Other PEK family kinases","Type XII RTKs: TIE family of angiopoietin receptors","Type XVII RTKs: ROS receptors","Ac
k family","Tec family","LZK subfamily","Csk family","Type XIII RTKs: Ephrin receptor family"}

> <pathway_reactome>
{"Gene expression (Transcription)","Signal Transduction",Disease,"Immune System","Neuronal System","Developmental Biology","Cellular responses to external stimuli","Cell Cycle",Metabolism,"Vesicle-med
iated transport","Extracellular matrix organization","Cell-Cell communication","Circadian Clock","Metabolism of RNA",Hemostasis,"RNA Polymerase II Transcription","Signaling by Receptor Tyrosine Kinase
s","Infectious disease","Cytokine Signaling in Immune system","Signaling by Rho GTPases","Signaling by Hippo","Innate Immune System","Diseases of signal transduction by growth factor receptors and sec
ond messengers","Transmission across Chemical Synapses","Nervous system development","Intracellular signaling by second messengers","Cellular responses to stress",Mitotic,"Metabolism of carbohydrates"
,"MTOR signalling","Signaling by Non-Receptor Tyrosine Kinases","Membrane Trafficking","Signaling by GPCR","Signaling by TGFB family members","Non-integrin membrane-ECM interactions","Cell junction or
ganization","Signaling by NODAL","rRNA processing","Cell surface interactions at the vascular wall","Signaling by Hedgehog","MAPK family signaling cascades","Adaptive Immune System","Generic Transcrip
tion Pathway","Signaling by VEGF","HIV Infection","Interferon Signaling","RHO GTPase Effectors","Toll-like Receptor Cascades","Signaling by PDGFR in disease","Neurotransmitter receptors and postsynapt
ic signal transmission","Signaling by NTRKs","Axon guidance","PIP3 activates AKT signaling","Cellular Senescence","Signaling by KIT in disease","Mitotic G2-G2/M phases","Glycogen metabolism","Leishman
ia infection","Signaling by FGFR in disease","Signaling by MST1","mTORC1-mediated signalling","Signaling by PTK6","M Phase","Oncogenic MAPK signaling","trans-Golgi Network Vesicle Budding","Signaling 
by Insulin receptor","Clathrin-mediated endocytosis","GPCR downstream signalling","Signaling by BMP","Signaling by Interleukins","Cell-extracellular matrix interactions","Regulation of signaling by NO
DAL","Influenza Infection","Mitotic G1 phase and G1/S transition","rRNA processing in the nucleus and cytosol","Hedgehog 'on' state","Fc epsilon receptor (FCERI) signaling","Neutrophil degranulation",
"MAPK1/MAPK3 signaling","TCR signaling","Transcriptional Regulation by TP53","VEGF ligand-receptor interactions","VEGFA-VEGFR2 Pathway","Host Interactions of HIV factors","Interferon alpha/beta signal
ing","RHO GTPases activate PKNs","Toll Like Receptor 4 (TLR4) Cascade","Drug resistance of PDGFR mutants","Activation of NMDA receptors and postsynaptic events","Signaling by NTRK1 (TRKA)","RET signal
ing","Negative regulation of the PI3K/AKT network","Toll Like Receptor 5 (TLR5) Cascade","Signaling by ROBO receptors","Oxidative Stress Induced Senescence","Semaphorin interactions","Drug resistance 
of KIT mutants","Transcriptional regulation by RUNX1","G2/M Transition","Glycogen breakdown (glycogenolysis)","Leishmania parasite growth and survival","Signaling by FGFR1 in disease","Transcriptional
 Regulation by VENTX","Parasite infection","Signaling by FGFR3 in disease","PTK6 promotes HIF1A stabilization","Mitotic Metaphase and Anaphase","Signaling by RAS mutants","Golgi Associated Vesicle Bio
genesis","Insulin receptor signalling cascade","Cargo recognition for clathrin-mediated endocytosis","G alpha (i) signalling events","Interleukin-2 family signaling","G alpha (q) signalling events","R
egulation of cytoskeletal remodeling and cell spreading by IPP complex components","NS1 Mediated Effects on Host Pathways","Signaling by FGFR2 in disease","G1 Phase","Major pathway of rRNA processing 
in the nucleolus and cytosol","FCERI mediated Ca+2 mobilization","Interleukin-1 family signaling","EPH-Ephrin signaling","RAF/MAP kinase cascade","Generation of second messenger molecules","Regulation
 of TP53 Activity","VEGF binds to VEGFR leading to receptor dimerization","The role of Nef in HIV-1 replication and disease pathogenesis","Regulation of IFNA signaling","MyD88-independent TLR4 cascade
","Imatinib-resistant PDGFR mutants","Post NMDA receptor activation events","Activation of TRKA receptors",PI5P,"PP2A and IER3 Regulate PI3K/AKT Signaling","MyD88 cascade initiated on plasma membrane"
,"Activation of RAC1","Sema4D in semaphorin signaling","Dasatinib-resistant KIT mutants","RUNX1 regulates transcription of genes involved in BCR signaling","Centrosome maturation","Anti-inflammatory r
esponse favouring Leishmania parasite infection","FGFR1 mutant receptor activation","Leishmania phagocytosis","Signaling by FGFR3 point mutants in cancer","VEGFR2 mediated cell proliferation","Mitotic
 Anaphase","Signaling downstream of RAS mutants","IRS-mediated signalling","Visual phototransduction","Interleukin-15 signaling","Gastrin-CREB signalling pathway via PKC and MAPK","Inhibition of PKR",
"FGFR2 mutant receptor activation","Role of ABL in ROBO-SLIT signaling","Cyclin D associated events in G1","Signalling to ERKs","Signalling to ERK5","Interleukin-1 signaling","EPHB-mediated forward si
gnaling","Regulation of TP53 Expression and Degradation","Nef-mediates down modulation of cell surface receptors by recruiting them to clathrin adapters","TRIF(TICAM1)-mediated TLR4 signaling","Regula
tion of TP53 Activity through Phosphorylation","CREB1 phosphorylation through NMDA receptor-mediated activation of RAS signaling","NGF-independant TRKA activation","MAP kinase activation","Sema4D medi
ated inhibition of cell attachment and migration","Loss of proteins required for interphase microtubule organization from the centrosome","FCGR3A-mediated IL10 synthesis","Signaling by activated point
 mutants of FGFR1","Sema4D induced cell migration and growth-cone collapse","FCGR3A-mediated phagocytosis","FGFR3 mutant receptor activation","Separation of Sister Chromatids","PI3K Cascade","The phot
otransduction cascade","EGFR Transactivation by Gastrin","Activation of AMPK downstream of NMDARs","Activated point mutants of FGFR2","Prolonged ERK activation events","Activation of RAC1 downstream o
f NMDARs","Regulation of TP53 Degradation","Nef Mediated CD4 Down-regulation","Activation of IRF3/IRF7 mediated by TBK1/IKK epsilon","Ras activation upon Ca2+ influx through NMDA receptor","activated 
TAK1 mediates p38 MAPK activation","MAPK targets/ Nuclear events mediated by MAP kinases","Loss of Nlp from mitotic centrosomes","Signaling by activated point mutants of FGFR3",Inactivation,"recovery 
and regulation of the phototransduction cascade","IKK complex recruitment mediated by RIP1","Frs2-mediated activation","ARMS-mediated activation","CREB phosphorylation","Activation of the AP-1 family 
of transcription factors"}

> <broad_targets>
.

> <broad_moa>
.

> <synonyms>
{Axitinib,319460-85-0,319460850,"319460 85 0",AG-013736,AG013736,"AG 013736",Inlyta,(E)-N-Methyl-2-((3-(2-(pyridin-2-yl)vinyl)-1H-indazol-6-yl)thio)benzamide,(E)NMethyl2((3(2(pyridin2yl)vinyl)1Hindazo
l6yl)thio)benzamide,"(E) N Methyl 2 ((3 (2 (pyr",757441,S1005,"NSC 757441",axitinib}

> <pdid>
PD003216

> <targets>
{VEGFR-PDGFR,PDGFR,VEGFR}

> <classes>
{VEGFR1/2/3 inhibitor,Protein Tyrosine Kinase/RTK}

> <pubchem_cids>
{6450551}

$$$$
NCI_AOD5_2014
  SciTegic11012412592D

 37 41  0  0  0  0            999 V2000
    2.5981   -1.5000    0.0000 C   0  0
    1.2990   -0.7500    0.0000 N   0  0
    1.2990    0.7500    0.0000 C   0  0
    2.5981    1.5000    0.0000 O   0  0
    0.0000    1.5000    0.0000 C   0  0
   -1.2990    0.7500    0.0000 C   0  0
   -2.5981    1.5000    0.0000 N   0  0
   -3.8971    0.7500    0.0000 C   0  0
   -5.1962    1.5000    0.0000 O   0  0
   -3.8971   -0.7500    0.0000 N   0  0
   -5.1968   -1.5004    0.0000 C   0  0
   -6.6177   -1.4570    0.0000 C   0  0
   -5.8657   -2.7548    0.0000 C   0  0
   -2.5981   -1.5000    0.0000 C   0  0
   -2.5981   -3.0000    0.0000 O   0  0
   -1.2990   -0.7500    0.0000 C   0  0
    0.0000   -1.5000    0.0000 C   0  0
    0.0031   -3.0008    0.0000 N   0  0
    1.3039   -3.7494    0.0000 C   0  0
    2.6005   -2.9949    0.0000 C   0  0
    3.9021   -3.7404    0.0000 C   0  0
    3.9073   -5.2404    0.0000 C   0  0
    5.2089   -5.9859    0.0000 I   0  0
    2.6108   -5.9949    0.0000 C   0  0
    1.3092   -5.2494    0.0000 C   0  0
    0.0128   -6.0039    0.0000 F   0  0
   -2.5981    3.0007    0.0000 C   0  0
   -1.3003    3.7529    0.0000 C   0  0
   -1.3026    5.2529    0.0000 C   0  0
   -2.6029    6.0009    0.0000 C   0  0
   -3.9007    5.2488    0.0000 C   0  0
   -5.2032    5.9944    0.0000 N   0  0
   -6.5007    5.2401    0.0000 C   0  0
   -6.4957    3.7401    0.0000 C   0  0
   -7.8025    5.9854    0.0000 O   0  0
   -3.8983    3.7488    0.0000 C   0  0
    0.0000    3.0000    0.0000 C   0  0
  1  2  1  0
  2  3  1  0
  3  4  2  0
  3  5  1  0
  5  6  2  3
  6  7  1  0
  7  8  1  0
  8  9  2  0
  8 10  1  0
 10 11  1  0
 11 12  1  0
 12 13  1  0
 13 11  1  0
 10 14  1  0
 14 15  2  0
 14 16  1  0
 16  6  1  0
 16 17  2  3
 17  2  1  0
 17 18  1  0
 18 19  1  0
 19 20  2  0
 20 21  1  0
 21 22  2  0
 22 23  1  0
 22 24  1  0
 24 25  2  0
 25 19  1  0
 25 26  1  0
  7 27  1  0
 27 28  2  0
 28 29  1  0
 29 30  2  0
 30 31  1  0
 31 32  1  0
 32 33  1  0
 33 34  1  0
 33 35  2  0
 31 36  2  0
 36 27  1  0
  5 37  1  0
M  END
> <name>
NCI_AOD5_2014

> <id>
2590

> <plate>
NCI_V5_A

> <well>
D09

> <supplier_cmpd_name>
Trametinib

> <ctcr_id>
311

> <supplier_cmpd_id>
Trametinib

> <smiles>
CN1C(=O)C(=C2N(C(=O)N(C3CC3)C(=O)C2=C1Nc4ccc(I)cc4F)c5cccc(NC(C)=O)c5)C

> <pd_targets>
{MAP2K1,MAP2K2,ABCB1,BRAF}

> <pathway_gtopdb>
{Enzyme,Transporter,Kinase,"Primary active transporter","Protein Kinase","ATP-binding cassette","STE protein kinase group","ABCB subfamily","TKL protein kinase group","STE protein kinase STE7 family",
"TKL protein kinase RAF family"}

> <pathway_chembl>
{Enzymes,Transporters,Receptors,"Kinases (EC 2.7.x.x)","ATP-binding cassette transporter family","Catalytic receptors","STE: Homologs of yeast Sterile 7","Sterile 11","Sterile 20 kinases","ABCB subfam
ily","Receptor kinases","STE7 family","TKL: Tyrosine kinase-like","RAF family"}

> <pathway_reactome>
{"Signal Transduction",Metabolism,"Signaling by Receptor Tyrosine Kinases","Abacavir transport and metabolism","Signaling by NTRKs","Abacavir transmembrane transport","Signaling by NTRK1 (TRKA)","Sign
alling to ERKs","Prolonged ERK activation events","Frs2-mediated activation","ARMS-mediated activation"}

> <broad_targets>
{MAP2K1,MAP2K2}

> <broad_moa>
{"MEK inhibitor"}

> <synonyms>
{Trametinib,871700-17-3,871700173,GSK1120212,Mekinist,GSK-1120212,"JTP 74057",JTP-74057,JTP74057,"GSK 1120212","Trametinib (GSK1120212)",GSK212,UNII-33E86K87QN,UNII33E86K87QN,TMT212,CHEBI:75998,TMT-21
2,33E86K87QN,"Trametinib (USAN:INN)",trametinibum,QOM,"Trametinib (USAN)",T2125,758246,S2673,trametinib,"GSK1120212 (Trametinib)"}

> <pdid>
PD003250

> <targets>
{MEK}

> <classes>
{MAPK,"Kinase inhibitor"}

> <pubchem_cids>
{11707110}

$$$$
NCI_AOD5_2014
  SciTegic11012412592D

 36 38  0  0  0  0            999 V2000
    0.0000    0.0000    0.0000 C   0  0
    0.0000   -1.5000    0.0000 C   0  0
    1.3000   -2.2500    0.0000 N   0  0
    2.6000   -1.5000    0.0000 C   0  0
    3.9000   -2.2500    0.0000 C   0  0
    5.2000   -1.5000    0.0000 N   0  0
    6.5000   -2.2500    0.0000 C   0  0
    7.8000   -1.5000    0.0000 C   0  0
    7.8000    0.0000    0.0000 C   0  0
    6.5000    0.7500    0.0000 N   0  0
    5.2000    0.0000    0.0000 C   0  0
    3.9000    0.7500    0.0000 C   0  0
    2.6000    0.0000    0.0000 N   0  0
    1.3000    0.7500    0.0000 C   0  0
    6.4969    2.2508    0.0000 C   0  0
    5.1961    2.9994    0.0000 C   0  0
    5.1908    4.4994    0.0000 C   0  0
    3.8892    5.2449    0.0000 C   0  0
    2.5928    4.4904    0.0000 C   0  0
    1.2889    5.2337    0.0000 C   0  0
   -0.0072    4.4769    0.0000 N   0  0
   -1.3115    5.2179    0.0000 C   0  0
   -2.6057    4.4580    0.0000 C   0  0
   -2.5957    2.9572    0.0000 C   0  0
   -3.8900    2.1973    0.0000 N   0  0
   -3.8800    0.6965    0.0000 C   0  0
   -5.1743   -0.0634    0.0000 C   0  0
   -5.1643   -1.5642    0.0000 N   0  0
   -3.8600   -2.3051    0.0000 C   0  0
   -2.5658   -1.5452    0.0000 C   0  0
   -2.5758   -0.0444    0.0000 C   0  0
   -1.2815    0.7155    0.0000 N   0  0
   -1.2915    2.2163    0.0000 C   0  0
    0.0028    2.9761    0.0000 C   0  0
    2.5979    2.9904    0.0000 C   0  0
    3.8996    2.2449    0.0000 C   0  0
  1  2  1  0
  2  3  1  0
  3  4  1  0
  4  5  1  0
  5  6  1  0
  6  7  1  0
  7  8  1  0
  8  9  1  0
  9 10  1  0
 10 11  1  0
 11 12  1  0
 12 13  1  0
 13 14  1  0
 14  1  1  0
 10 15  1  0
 15 16  1  0
 16 17  2  0
 17 18  1  0
 18 19  2  0
 19 20  1  0
 20 21  1  0
 21 22  1  0
 22 23  1  0
 23 24  1  0
 24 25  1  0
 25 26  1  0
 26 27  1  0
 27 28  1  0
 28 29  1  0
 29 30  1  0
 30 31  1  0
 31 32  1  0
 32 33  1  0
 33 34  1  0
 34 21  1  0
 19 35  1  0
 35 36  2  0
 36 16  1  0
M  END
> <name>
NCI_AOD5_2014

> <id>
2591

> <plate>
NCI_V5_A

> <well>
D10

> <supplier_cmpd_name>
Plerixafor

> <ctcr_id>
1777

> <supplier_cmpd_id>
Plerixafor

> <smiles>
C1CNCCNCCCN(CCNC1)Cc2ccc(CN3CCCNCCNCCCNCC3)cc2

> <pd_targets>
{KMT2A,MEN1,BLM,CXCR4,ACKR3,CCR2}

> <pathway_gtopdb>
{"Epigenetic regulator",Enzyme,"Membrane receptor",Reader,"Family A G protein-coupled receptor",Bromodomain,"Peptide receptor (family A GPCR)","Chemokine receptor","CXC chemokine receptor","CC chemoki
ne receptor"}

> <pathway_chembl>
{Receptors,"G protein-coupled receptors","Chemokine receptors"}

> <pathway_reactome>
{"DNA Repair",Disease,"Signal Transduction","DNA Double-Strand Break Repair","Infectious disease","Signaling by GPCR","Homology Directed Repair","HIV Infection","GPCR ligand binding","HDR through Homo
logous Recombination (HRR) or Single Strand Annealing (SSA)","HIV Life Cycle","Class A/1 (Rhodopsin-like receptors)","HDR through Homologous Recombination (HRR)","Early Phase of HIV Life Cycle","Pepti
de ligand-binding receptors","Homologous DNA Pairing and Strand Exchange","Binding and entry of HIV virion","Chemokine receptors bind chemokines","Presynaptic phase of homologous DNA pairing and stran
d exchange"}

> <broad_targets>
{ACKR3,CCR4,CXCR4}

> <broad_moa>
{"CC chemokine receptor antagonist"}

> <synonyms>
{Plerixafor,110078-46-1,110078461,Mozobil,AMD3100,"1,4-Bis((1,4,8,11-tetraazacyclotetradecan-1-yl)methyl)benzene","1,4Bis((1,4,8,11tetraazacyclotetradecan1yl)methyl)benzene","Amd 3100","bicyclam JM-29
87","bicyclam JM2987","plerixafor (amd3100)","Plerixafor hydrochloride",AMD-3100,"SDZ SID 791",JM3100,"JM 3100",JM-3100,UNII-S915P549,UNIIS915P549,T1776,T1776L,761388,"AMD 3100 octahydrochloride"}

> <pdid>
PD004078

> <targets>
{}

> <classes>
{"CXCR4 antoginst"}

> <pubchem_cids>
{65015}

$$$$
NCI_AOD5_2014
  SciTegic11012412592D

101105  0  0  1  0            999 V2000
   11.7163   -8.2298    0.0000 C   0  0
   10.4142   -7.4851    0.0000 C   0  0  1  0  0  0
   10.4085   -5.9851    0.0000 O   0  0
    9.1178   -8.2413    0.0000 C   0  0  2  0  0  0
    7.8165   -7.4936    0.0000 N   0  0
    7.8125   -5.9928    0.0000 C   0  0
    9.1097   -5.2397    0.0000 O   0  0
    6.5112   -5.2450    0.0000 C   0  0  2  0  0  0
    5.2139   -5.9981    0.0000 C   0  0
    6.5071   -3.7442    0.0000 C   0  0  2  0  0  0
    7.8044   -2.9911    0.0000 O   0  0
    5.2058   -2.9965    0.0000 C   0  0  2  0  0  0
    3.9086   -3.7496    0.0000 C   0  0
    5.2018   -1.4957    0.0000 N   0  0
    6.4990   -0.7409    0.0000 C   0  0
    7.8003   -1.4870    0.0000 O   0  0
    6.4950    0.7599    0.0000 C   0  0  1  0  0  0
    5.1937    1.5076    0.0000 N   0  0
    3.8950    0.7553    0.0000 C   0  0
    3.8976   -0.7447    0.0000 O   0  0
    2.5937    1.5031    0.0000 C   0  0
    1.2977    0.7477    0.0000 N   0  0
   -0.0044    1.4924    0.0000 C   0  0
   -0.0106    2.9924    0.0000 N   0  0
    1.2854    3.7477    0.0000 C   0  0
    1.2792    5.2477    0.0000 N   0  0
    2.5875    3.0031    0.0000 C   0  0
    3.8834    3.7584    0.0000 C   0  0
   -1.3026    0.7393    0.0000 C   0  0
   -2.6052    1.4848    0.0000 C   0  0
   -3.9026    0.7302    0.0000 C   0  0
   -5.2044    1.4753    0.0000 O   0  0
   -3.8973   -0.7697    0.0000 N   0  0
   -1.3005   -0.7615    0.0000 N   0  0
   -2.5987   -1.5146    0.0000 C   0  0
   -2.5965   -3.0154    0.0000 C   0  0  2  0  0  0
   -1.2962   -3.7632    0.0000 N   0  0
   -3.8947   -3.7685    0.0000 C   0  0
   -3.8926   -5.2685    0.0000 O   0  0
   -5.1951   -3.0208    0.0000 N   0  0
    7.7929    1.5134    0.0000 C   0  0
    7.7869    3.0142    0.0000 O   0  0
    9.0832    3.7705    0.0000 C   0  0
   10.3843    3.0239    0.0000 O   0  0
   11.6814    3.7772    0.0000 C   0  0
   12.9815    3.0275    0.0000 C   0  0
   12.9832    1.5275    0.0000 O   0  0
   11.6775    5.2772    0.0000 C   0  0
   12.9746    6.0305    0.0000 O   0  0
   10.3766    6.0239    0.0000 C   0  0
   10.3727    7.5239    0.0000 O   0  0
    9.0795    5.2705    0.0000 C   0  0
    7.7763    6.0150    0.0000 O   0  0
    7.7684    7.5158    0.0000 C   0  0
    9.0651    8.2700    0.0000 O   0  0
    9.0603    9.7700    0.0000 C   0  0
   10.3592   10.5219    0.0000 C   0  0
   10.3585   12.0219    0.0000 O   0  0
    7.7589   10.5159    0.0000 C   0  0
    7.7541   12.0159    0.0000 O   0  0
    6.4623    9.7618    0.0000 C   0  0
    5.1586   10.5053    0.0000 O   0  0
    3.8623    9.7490    0.0000 C   0  0
    2.5594   10.4921    0.0000 O   0  0
    3.8697    8.2490    0.0000 N   0  0
    6.4670    8.2618    0.0000 C   0  0
    5.1704    7.5077    0.0000 O   0  0
    9.0953    0.7674    0.0000 C   0  0
   10.4460    1.3899    0.0000 C   0  0
   11.4509    0.2763    0.0000 N   0  0
   10.7023   -1.0235    0.0000 C   0  0
    9.2347   -0.7133    0.0000 N   0  0
    9.1218   -9.7421    0.0000 C   0  0
    7.8246  -10.4952    0.0000 O   0  0
   10.4231  -10.4899    0.0000 N   0  0
   10.4272  -11.9907    0.0000 C   0  0
   11.7285  -12.7384    0.0000 C   0  0
   11.7325  -14.2392    0.0000 C   0  0
   12.9466  -15.0983    0.0000 N   0  0
   12.4840  -16.5252    0.0000 C   0  0
   10.9840  -16.5261    0.0000 C   0  0
   10.5195  -15.0998    0.0000 S   0  0
   13.3669  -17.7387    0.0000 C   0  0
   14.8462  -17.8355    0.0000 N   0  0
   15.1977  -19.2937    0.0000 C   0  0
   13.9194  -20.0786    0.0000 C   0  0
   12.7779  -19.1054    0.0000 S   0  0
   16.5812  -19.8687    0.0000 C   0  0
   17.7720  -18.9566    0.0000 O   0  0
   16.7763  -21.3568    0.0000 N   0  0
   18.1621  -21.9328    0.0000 C   0  0
   18.3572  -23.4209    0.0000 C   0  0
   19.7431  -23.9969    0.0000 C   0  0
   19.9382  -25.4850    0.0000 S   0  3
   21.3233  -26.0607    0.0000 C   0  0
   18.7473  -26.3971    0.0000 C   0  0
   40.9423   -0.3667    0.0000 O   0  0
   40.9423   -1.8667    0.0000 S   0  0
   39.6430   -2.6163    0.0000 O   0  0
   42.2416   -2.6163    0.0000 O   0  0
   40.9423   -3.3667    0.0000 O   0  5
  2  1  1  6
  2  3  1  0
  2  4  1  0
  4  5  1  1
  5  6  1  0
  6  7  2  0
  6  8  1  0
  8  9  1  6
  8 10  1  0
 10 11  1  1
 10 12  1  0
 12 13  1  6
 12 14  1  0
 14 15  1  0
 15 16  2  0
 15 17  1  0
 17 18  1  1
 18 19  1  0
 19 20  2  0
 19 21  1  0
 21 22  2  0
 22 23  1  0
 23 24  2  0
 24 25  1  0
 25 26  1  0
 25 27  2  0
 27 21  1  0
 27 28  1  0
 23 29  1  0
 29 30  1  0
 30 31  1  0
 31 32  2  0
 31 33  1  0
 29 34  1  0
 34 35  1  0
 35 36  1  0
 36 37  1  6
 36 38  1  0
 38 39  2  0
 38 40  1  0
 17 41  1  0
 41 42  1  0
 42 43  1  0
 43 44  1  0
 44 45  1  0
 45 46  1  0
 46 47  1  0
 45 48  1  0
 48 49  1  0
 48 50  1  0
 50 51  1  0
 50 52  1  0
 52 43  1  0
 52 53  1  0
 53 54  1  0
 54 55  1  0
 55 56  1  0
 56 57  1  0
 57 58  1  0
 56 59  1  0
 59 60  1  0
 59 61  1  0
 61 62  1  0
 62 63  1  0
 63 64  2  0
 63 65  1  0
 61 66  1  0
 66 54  1  0
 66 67  1  0
 41 68  1  0
 68 69  2  0
 69 70  1  0
 70 71  1  0
 71 72  2  0
 72 68  1  0
  4 73  1  0
 73 74  2  0
 73 75  1  0
 75 76  1  0
 76 77  1  0
 77 78  1  0
 78 79  2  0
 79 80  1  0
 80 81  2  0
 81 82  1  0
 82 78  1  0
 80 83  1  0
 83 84  2  0
 84 85  1  0
 85 86  2  0
 86 87  1  0
 87 83  1  0
 85 88  1  0
 88 89  2  0
 88 90  1  0
 90 91  1  0
 91 92  1  0
 92 93  1  0
 93 94  1  0
 94 95  1  0
 94 96  1  0
 97 98  1  0
 98 99  2  0
 98100  2  0
 98101  1  0
M  CHG  2  94   1 101  -1
M  END
> <name>
NCI_AOD5_2014

> <id>
2592

> <plate>
NCI_V5_A

> <well>
D11

> <supplier_cmpd_name>
Bleomycin sulfate

> <ctcr_id>
2562

> <supplier_cmpd_id>
125066

> <smiles>
C[C@@H](O)[C@H](NC(=O)[C@H](C)[C@H](O)[C@H](C)NC(=O)[C@@H](NC(=O)c1nc(nc(N)c1C)C(CC(=O)N)NC[C@H](N)C(=O)N)C(OC2OC(CO)C(O)C(O)C2OC3OC(CO)C(O)C(OC(=O)N)C3O)c4c[nH]cn4)C(=O)NCCc5nc(cs5)c6nc(cs6)C(=O)NCCC
[S+](C)C.OS(=O)(=O)[O-]

> <pd_targets>
.

> <pathway_gtopdb>
.

> <pathway_chembl>
.

> <pathway_reactome>
.

> <broad_targets>
{}

> <broad_moa>
{"DNA synthesis inhibitor"}

> <synonyms>
{Bleo,"Bleomycin sulfate",NSC125066,NSC-125066,CHEMBL1977624,"Blenoxane (TN) (Bristol Meyers)",125066,"NSC 125066"}

> <pdid>
PD003687

> <targets>
{}

> <classes>
{"DNA metabolism inhibitor"}

> <pubchem_cids>
{54608728}

$$$$
NCI_AOD5_2014
  SciTegic11012412592D

 41 42  0  0  0  0            999 V2000
    5.1965   -1.5117    0.0000 C   0  0
    3.8999   -0.7576    0.0000 C   0  0
    2.5973   -1.5031    0.0000 C   0  0
    1.2990   -0.7500    0.0000 C   0  0
    1.2990    0.7500    0.0000 C   0  0
    0.0000    1.5000    0.0000 C   0  0
   -1.2990    0.7500    0.0000 C   0  0
   -1.2990   -0.7500    0.0000 C   0  0
    0.0000   -1.5000    0.0000 C   0  0
    2.5951   -3.0039    0.0000 C   0  0
    3.8933   -3.7570    0.0000 C   0  0
    3.8934   -5.2570    0.0000 C   0  0
    5.1924   -6.0070    0.0000 C   0  0
    6.4915   -5.2571    0.0000 C   0  0
    6.4915   -3.7571    0.0000 C   0  0
    5.1925   -3.0070    0.0000 C   0  0
    1.2941   -3.7520    0.0000 C   0  0
    1.2894   -5.2521    0.0000 C   0  0
   -0.0120   -5.9981    0.0000 C   0  0
   -1.3087   -5.2440    0.0000 C   0  0
   -2.6123   -5.9877    0.0000 O   0  0
   -3.9086   -5.2314    0.0000 C   0  0
   -5.2123   -5.9751    0.0000 C   0  0
   -6.5086   -5.2188    0.0000 N   0  0
   -7.8115   -5.9621    0.0000 C   0  0
   -6.5013   -3.7189    0.0000 C   0  0
   -1.3040   -3.7440    0.0000 C   0  0
   -0.0027   -2.9981    0.0000 C   0  0
   10.2915   -1.5124    0.0000 O   0  0
   10.2915   -3.0124    0.0000 C   0  0
    8.9922   -3.7620    0.0000 O   0  0
   11.5915   -3.7624    0.0000 C   0  0
   12.8915   -3.0124    0.0000 C   0  0
   14.1900   -3.7632    0.0000 O   0  0
   12.8929   -1.5115    0.0000 C   0  0
   14.1929   -0.7615    0.0000 C   0  0
   15.4914   -1.5124    0.0000 O   0  0
   14.1943    0.7385    0.0000 O   0  0
   12.8927   -4.5423    0.0000 C   0  0
   11.5940   -5.2930    0.0000 O   0  0
   14.1918   -5.2921    0.0000 O   0  0
  1  2  1  0
  2  3  1  0
  3  4  1  0
  4  5  2  0
  5  6  1  0
  6  7  2  0
  7  8  1  0
  8  9  2  0
  9  4  1  0
  3 10  2  0
 10 11  1  0
 11 12  2  0
 12 13  1  0
 13 14  2  0
 14 15  1  0
 15 16  2  0
 16 11  1  0
 10 17  1  0
 17 18  2  0
 18 19  1  0
 19 20  2  0
 20 21  1  0
 21 22  1  0
 22 23  1  0
 23 24  1  0
 24 25  1  0
 24 26  1  0
 20 27  1  0
 27 28  2  0
 28 17  1  0
 29 30  1  0
 30 31  2  0
 30 32  1  0
 32 33  1  0
 33 34  1  0
 33 35  1  0
 35 36  1  0
 36 37  1  0
 36 38  2  0
 33 39  1  0
 39 40  1  0
 39 41  2  0
M  END
> <name>
NCI_AOD5_2014

> <id>
2593

> <plate>
NCI_V5_A

> <well>
E02

> <supplier_cmpd_name>
Tamoxifen citrate

> <ctcr_id>
5844

> <supplier_cmpd_id>
180973

> <smiles>
CC/C(c1ccccc1)=C(c2ccccc2)/c3ccc(OCCN(C)C)cc3.OC(=O)CC(O)(CC(O)=O)C(O)=O

> <pd_targets>
.

> <pathway_gtopdb>
.

> <pathway_chembl>
.

> <pathway_reactome>
.

> <broad_targets>
.

> <broad_moa>
.

> <synonyms>
{"RESTW 14",Tamoxan,Tamoxene,Tamoxin,Tamox,MLS001055370,"Tamoxifen citrate",54965-24-1,54965241,"54965 24 1",Istubal,"Tamoxifen (Citrate)","Tamoxifen citrate salt",UNII-7FRV7310N6,UNII7FRV7310N6,"UNII
 7FRV7310N6",C32H37NO8,"ICI 46474","ICI 46,474","Tamoxifen Citrate (Nolvadex)","54965-24-1 (citrate)","54965241 (citrate)","54965 24 1 (citrate)",7FRV7310N,T0835,180973,S1972,NSC180973,1500557,Prestw-
146,"NSC 180973
NSC 180973","Tamoxifen Z-isomer citrate","Tamoxifen Citrate","TAMOXIFEN CITRATE"}

> <pdid>

> <targets>
{Estrogen/progestogen Receptor,Apoptosis,Autophagy,Estrogen Receptor/ERR,HSP}

> <classes>
{antineoplastic,Endocrinology & Hormones,SERM,estrogen antagonist,Apoptosis,Autophagy,Cell Cycle/DNA Damage,Metabolic Enzyme/Protease,Others}

> <pubchem_cids>
{25010734,2733525}

$$$$
NCI_AOD5_2014
  SciTegic11012412592D

 13 14  0  0  0  0            999 V2000
    0.7195   -1.3162    0.0000 N   0  0
    0.0000    0.0000    0.0000 Pt  0  0
    0.7196    1.3161    0.0000 N   0  0
   -0.7535    1.2961    0.0000 O   0  0
   -2.2606    1.2961    0.0000 C   0  0
   -3.0086    2.5962    0.0000 O   0  0
   -3.0141    0.0000    0.0000 C   0  0
   -4.0691   -1.0549    0.0000 C   0  0
   -5.1391    0.0000    0.0000 C   0  0
   -4.0691    1.0549    0.0000 C   0  0
   -2.2606   -1.2961    0.0000 C   0  0
   -3.0086   -2.5962    0.0000 O   0  0
   -0.7535   -1.2961    0.0000 O   0  0
  1  2  1  0
  2  3  1  0
  2  4  1  0
  4  5  1  0
  5  6  2  0
  5  7  1  0
  7  8  1  0
  8  9  1  0
  9 10  1  0
 10  7  1  0
  7 11  1  0
 11 12  2  0
 11 13  1  0
 13  2  1  0
M  END
> <name>
NCI_AOD5_2014

> <id>
2594

> <plate>
NCI_V5_A

> <well>
E03

> <supplier_cmpd_name>
Carboplatin

> <ctcr_id>
2746

> <supplier_cmpd_id>
241240

> <smiles>
N[Pt]1(N)OC(=O)C2(CCC2)C(=O)O1

> <pd_targets>
.

> <pathway_gtopdb>
.

> <pathway_chembl>
.

> <pathway_reactome>
.

> <broad_targets>
{}

> <broad_moa>
{"DNA alkylating agent","DNA inhibitor"}

> <synonyms>
{AKOS022185820,AS-13313,AS13313,SDCCGSBI-0050218.P004,SDCCGSBI0050218.P004,241240,"NSC 241240",Carboplatin}

> <pdid>
PD004115

> <targets>
{}

> <classes>
{"Alkylating agent"}

> <pubchem_cids>
{73554252,122130863}

$$$$
NCI_AOD5_2014
  SciTegic11012412592D

 30 33  0  0  1  0            999 V2000
    3.8964    0.7545    0.0000 C   0  0
    3.8990   -0.7455    0.0000 C   0  0  1  0  0  0
    2.6003   -1.4977    0.0000 O   0  0
    1.2990   -0.7500    0.0000 C   0  0
    1.2990    0.7500    0.0000 C   0  0
    0.0000    1.5000    0.0000 C   0  0
   -1.2990    0.7500    0.0000 C   0  0
   -1.2990   -0.7500    0.0000 N   0  0
    0.0000   -1.5000    0.0000 C   0  0
    0.0000   -3.0000    0.0000 N   0  0
    0.0000    3.0008    0.0000 C   0  0
    1.2121    3.8625    0.0000 C   0  0
    0.7463    5.2884    0.0000 N   0  0
   -0.7537    5.2860    0.0000 N   0  0
   -1.2149    3.8587    0.0000 C   0  0
   -1.6377    6.4987    0.0000 C   0  0
   -1.1355    7.9069    0.0000 C   0  0
   -2.1078    9.0491    0.0000 C   0  0
   -3.5831    8.7781    0.0000 N   0  0
   -4.0862    7.3650    0.0000 C   0  0
   -3.1139    6.2228    0.0000 C   0  0
    5.2003   -1.4932    0.0000 C   0  0
    5.2056   -2.9933    0.0000 C   0  0
    3.9091   -3.7478    0.0000 Cl  0  0
    6.5072   -3.7388    0.0000 C   0  0
    7.8036   -2.9844    0.0000 C   0  0
    9.1052   -3.7299    0.0000 F   0  0
    7.7985   -1.4844    0.0000 C   0  0
    6.4969   -0.7388    0.0000 C   0  0
    6.4918    0.7612    0.0000 Cl  0  0
  2  1  1  6
  2  3  1  0
  3  4  1  0
  4  5  2  0
  5  6  1  0
  6  7  2  0
  7  8  1  0
  8  9  2  0
  9  4  1  0
  9 10  1  0
  6 11  1  0
 11 12  1  0
 12 13  2  0
 13 14  1  0
 14 15  1  0
 15 11  2  0
 14 16  1  0
 16 17  1  0
 17 18  1  0
 18 19  1  0
 19 20  1  0
 20 21  1  0
 21 16  1  0
  2 22  1  0
 22 23  2  0
 23 24  1  0
 23 25  1  0
 25 26  2  0
 26 27  1  0
 26 28  1  0
 28 29  2  0
 29 22  1  0
 29 30  1  0
M  END
> <name>
NCI_AOD5_2014

> <id>
2595

> <plate>
NCI_V5_A

> <well>
E04

> <supplier_cmpd_name>
Crizotinib

> <ctcr_id>
5753

> <supplier_cmpd_id>
756645

> <smiles>
C[C@@H](Oc1cc(cnc1N)c2cnn(c2)C3CCNCC3)c4c(Cl)cc(F)cc4Cl

> <pd_targets>
.

> <pathway_gtopdb>
.

> <pathway_chembl>
.

> <pathway_reactome>
.

> <broad_targets>
.

> <broad_moa>
.

> <synonyms>
{NSC756645,NSC-756645,AB01273972-01,AB0127397201,756645,"NSC 756645",Crizotinib,PF-2341066}

> <pdid>
PD004074

> <targets>
{}

> <classes>
{"ALK inhibitor"}

> <pubchem_cids>
{54613769}

$$$$
NCI_AOD5_2014
  SciTegic11012412592D

 52 55  0  0  1  0            999 V2000
    2.6304   11.9895    0.0000 C   0  0
    2.6316   10.4895    0.0000 C   0  0
    1.7658    9.9891    0.0000 C   0  0
    3.9315    9.7393    0.0000 C   0  0
    3.9327    8.2384    0.0000 C   0  0  2  0  0  0
    2.6318    7.4901    0.0000 N   0  0
    1.3327    8.2417    0.0000 C   0  0
    1.3340    9.2417    0.0000 O   0  0
    0.0318    7.4934    0.0000 C   0  0  2  0  0  0
    0.0268    5.9925    0.0000 C   0  0
   -1.2750    5.2456    0.0000 C   0  0
   -1.2799    3.7448    0.0000 C   0  0
    0.0150    2.9878    0.0000 C   0  0
    0.0070    1.4878    0.0000 C   0  0
   -1.2961    0.7448    0.0000 C   0  0
   -2.5911    1.5018    0.0000 C   0  0
   -2.5830    3.0018    0.0000 C   0  0
   -1.2673    8.2450    0.0000 N   0  0
   -2.5682    7.4967    0.0000 C   0  0
   -2.5701    5.9967    0.0000 O   0  0
   -3.8672    8.2483    0.0000 C   0  0
   -5.1682    7.4999    0.0000 N   0  0
   -6.4676    8.2493    0.0000 C   0  0
   -7.7663    7.4987    0.0000 C   0  0
   -7.7656    5.9987    0.0000 O   0  0
   -6.4663    5.2493    0.0000 C   0  0
   -5.1676    5.9999    0.0000 C   0  0
    5.2317    7.4868    0.0000 C   0  0
    5.2305    6.4868    0.0000 O   0  0
    6.5327    8.2352    0.0000 N   0  0
    7.8317    7.4835    0.0000 C   0  0  1  0  0  0
    7.8267    5.9827    0.0000 C   0  0
    6.5250    5.2358    0.0000 C   0  0
    5.2263    5.9866    0.0000 C   0  0
    3.9268    5.2374    0.0000 C   0  0
    3.9258    3.7374    0.0000 C   0  0
    5.2244    2.9866    0.0000 C   0  0
    6.5239    3.7357    0.0000 C   0  0
    9.1327    8.2319    0.0000 C   0  0
    9.1339    9.2319    0.0000 O   0  0
   10.4317    7.4802    0.0000 N   0  0
   11.7326    8.2286    0.0000 C   0  0  1  0  0  0
   11.7314    9.7294    0.0000 C   0  0
   10.4316   10.4796    0.0000 C   0  0
   10.4304   11.9796    0.0000 C   0  0
    9.5658    9.9792    0.0000 C   0  0
   13.0317    7.4769    0.0000 C   0  0
   13.0298    5.9769    0.0000 O   0  0
   14.3326    8.2253    0.0000 C   0  0  1  0  0  0
   15.6307    7.4737    0.0000 C   0  0
   13.5843    9.3922    0.0000 C   0  0
   15.0843    9.3901    0.0000 O   0  0
  1  2  1  0
  2  3  1  0
  2  4  1  0
  5  4  1  1
  5  6  1  0
  6  7  1  0
  7  8  2  0
  7  9  1  0
  9 10  1  6
 10 11  1  0
 11 12  1  0
 12 13  2  0
 13 14  1  0
 14 15  2  0
 15 16  1  0
 16 17  2  0
 17 12  1  0
  9 18  1  0
 18 19  1  0
 19 20  2  0
 19 21  1  0
 21 22  1  0
 22 23  1  0
 23 24  1  0
 24 25  1  0
 25 26  1  0
 26 27  1  0
 27 22  1  0
  5 28  1  0
 28 29  2  0
 28 30  1  0
 31 30  1  6
 31 32  1  0
 32 33  1  0
 33 34  2  0
 34 35  1  0
 35 36  2  0
 36 37  1  0
 37 38  2  0
 38 33  1  0
 31 39  1  0
 39 40  2  0
 39 41  1  0
 42 41  1  1
 42 43  1  0
 43 44  1  0
 44 45  1  0
 44 46  1  0
 42 47  1  0
 47 48  2  0
 47 49  1  0
 49 50  1  6
 49 51  1  0
 51 52  1  0
 52 49  1  0
M  END
> <name>
NCI_AOD5_2014

> <id>
2596

> <plate>
NCI_V5_A

> <well>
E05

> <supplier_cmpd_name>
Carfilzomib

> <ctcr_id>
5576

> <supplier_cmpd_id>
758252

> <smiles>
CC(C)C[C@H](NC(=O)[C@H](CCc1ccccc1)NC(=O)CN2CCOCC2)C(=O)N[C@@H](Cc3ccccc3)C(=O)N[C@@H](CC(C)C)C(=O)[C@@]4(C)CO4

> <pd_targets>
{PSMB5,PSMB2,PSMB1,CYP3A4,CYP3A43,CYP3A5,CYP3A7,PSMA1,PSMA2,PSMA3,PSMA4,PSMA5,PSMA6,PSMA7,PSMA8,PSMB10,PSMB11,PSMB3,PSMB4,PSMB6,PSMB7,PSMB8,PSMB9,CTSB,ADRM1,PSMC1,PSMC2,PSMC3,PSMC4,PSMC5,PSMC6,PSMD1,P
SMD11,PSMD12,PSMD13,PSMD14,PSMD2,PSMD3,PSMD4,PSMD6,PSMD7,PSMD8,SEM1,GSTO1,KCNH2}

> <pathway_gtopdb>
{Enzyme,"Ion channel",Protease,"Cytochrome P450",Hydrolase,Oxidoreductase,"Voltage-gated ion channel","Threonine protease","Cytochrome P450 family 3","Cysteine protease","Metallo protease","Potassium 
channels","Threonine protease PBT clan","Cytochrome P450 family 3A","Cysteine protease CA clan","Metallo protease MP clan","Voltage-gated potassium channel","Threonine protease T1A subfamily","Cytochr
ome P450 3A4","Cysteine protease C1A family","Metallo protease M67 family","Threonine protease T1B subfamily","Metallo protease M67A subfamily"}

> <pathway_chembl>
{Enzymes,"Ion channels","Peptidases and proteinases","2.5.1.18 Glutathione transferases","Voltage-gated ion channels","PB: Threonine (T) Peptidases","CA: Cysteine (C) Peptidases","Potassium channels",
"T1: Proteasome","C1: Papain","Voltage-gated potassium channels"}

> <pathway_reactome>
{"Cell Cycle","Immune System","Muscle contraction",Mitotic,"Innate Immune System","Cytokine Signaling in Immune system","Cardiac conduction","Regulation of mitotic cell cycle","Toll-like Receptor Casc
ades","Signaling by Interleukins","Phase 3 - rapid repolarisation","APC/C-mediated degradation of cell cycle proteins","Trafficking and processing of endosomal TLR","Interleukin-12 family signaling","
Activation of APC/C and APC/C:Cdc20 mediated degradation of mitotic proteins","Interleukin-12 signaling","APC/C:Cdc20 mediated degradation of mitotic proteins","Gene and protein expression by JAK-STAT
 signaling after Interleukin-12 stimulation","APC:Cdc20 mediated degradation of cell cycle proteins prior to satisfation of the cell cycle checkpoint","Cdc20:Phospho-APC/C mediated degradation of Cycl
in A"}

> <broad_targets>
{PSMA1,PSMA2,PSMA3,PSMA4,PSMA5,PSMA6,PSMA7,PSMA8,PSMB1,PSMB10,PSMB11,PSMB2,PSMB3,PSMB4,PSMB5,PSMB6,PSMB7,PSMB8,PSMB9}

> <broad_moa>
{"proteasome inhibitor"}

> <synonyms>
{Carfilzomib,868540-17-4,868540174,Kyprolis,"Carfilzomib (PR-171)","Carfilzomib (PR171)",PR-171,PR171,UNII-72X6E3J5AR,UNII72X6E3J5AR,72X6E3J5AR,CHEMBL451887,CHEBI:65347,NCGC00249613-01,NCGC0024961301,
DSSTox_CID_28616,DSSToxCID28616,DSSTox-CID-28616,"DSSTox CID 28616",DSSTox_RID_82886,DSSToxRID82886,DSSTox-RID-82886,"DSSTox RID 82886",DSSTox_GSID_48690,DSSToxGSID48690,DSSTox-GSID-48690,"DSSTox GSID
 48690",CAS-868540-17-4,CAS868540174,"Carfilzomib (USAN:INN",T1795,758252,S2853,"NSC 758252"}

> <pdid>
PD004089

> <targets>
{Apoptosis,Autophagy,Proteasome}

> <classes>
{Proteasome inhibitor,Apoptosis,Autophagy,Metabolic Enzyme/Protease}

> <pubchem_cids>
{11556711}

$$$$
NCI_AOD5_2014
  SciTegic11012412592D

 58 63  0  0  1  0            999 V2000
    2.2495    2.6548    0.0000 C   0  0
    3.6576    2.1380    0.0000 C   0  0
    4.8089    3.0995    0.0000 O   0  0
    3.9139    0.6592    0.0000 O   0  0
    2.7600   -0.3100    0.0000 C   0  0  1  0  0  0
    3.4900    0.9500    0.0000 C   0  0
    4.7600    0.2300    0.0000 O   0  0
    4.0400   -1.0400    0.0000 C   0  0  2  0  0  0
    4.0400   -2.4900    0.0000 C   0  0
    2.7600   -3.2200    0.0000 C   0  0  2  0  0  0
    2.7575   -4.7200    0.0000 O   0  0
    1.4900   -2.4900    0.0000 C   0  0  2  0  0  0
    1.4875   -3.9900    0.0000 C   0  0
    1.4900   -1.0400    0.0000 C   0  0  2  0  0  0
    0.2100   -0.3100    0.0000 C   0  0  2  0  0  0
    0.2081    1.1912    0.0000 O   0  0
    1.5064    1.9441    0.0000 C   0  0
    2.8067    1.1962    0.0000 O   0  0
    1.5045    3.4449    0.0000 C   0  0
    2.8011    4.1993    0.0000 C   0  0
    2.7961    5.6993    0.0000 C   0  0
    1.4946    6.4450    0.0000 C   0  0
    0.1980    5.6907    0.0000 C   0  0
    0.2030    4.1907    0.0000 C   0  0
   -1.0600   -1.0400    0.0000 C   0  0  2  0  0  0
   -1.0600    0.4600    0.0000 O   0  0
   -2.3300   -0.3100    0.0000 C   0  0
   -3.6100   -1.0400    0.0000 C   0  0  2  0  0  0
   -4.9097   -0.2889    0.0000 O   0  0
   -6.2103   -1.0379    0.0000 C   0  0
   -6.2111   -2.0379    0.0000 O   0  0
   -7.5097   -0.2869    0.0000 C   0  0  2  0  0  0
   -7.5086    1.2131    0.0000 O   0  0
   -8.8103   -1.0359    0.0000 C   0  0  1  0  0  0
   -8.8084   -2.5367    0.0000 N   0  0
   -7.5082   -3.2863    0.0000 C   0  0
   -6.6426   -2.7855    0.0000 O   0  0
   -7.5062   -4.7871    0.0000 O   0  0
   -6.2060   -5.5367    0.0000 C   0  0
   -6.2047   -6.5367    0.0000 C   0  0
   -4.9077   -4.7855    0.0000 C   0  0
   -4.9061   -6.2852    0.0000 C   0  0
  -10.1097   -0.2849    0.0000 C   0  0
  -11.4107   -1.0316    0.0000 C   0  0
  -12.7078   -0.2783    0.0000 C   0  0
  -12.7041    1.2217    0.0000 C   0  0
  -11.4032    1.9684    0.0000 C   0  0
  -10.1060    1.2152    0.0000 C   0  0
   -3.6100   -2.4900    0.0000 C   0  0
   -2.3300   -3.2200    0.0000 C   0  0
   -1.0600   -2.4900    0.0000 C   0  0  1  0  0  0
   -1.0600   -1.4900    0.0000 O   0  0
    0.2100   -3.2200    0.0000 C   0  0
    0.2075   -4.7200    0.0000 O   0  0
   -2.0200    0.2800    0.0000 C   0  0
   -0.9882    1.3687    0.0000 C   0  0
   -3.4648    0.6831    0.0000 C   0  0
   -4.9070   -3.2434    0.0000 C   0  0
  1  2  1  0
  2  3  2  0
  2  4  1  0
  5  4  1  1
  5  6  1  0
  6  7  1  0
  8  7  1  6
  8  5  1  0
  8  9  1  0
  9 10  1  0
 10 11  1  6
 10 12  1  0
 12 13  1  6
 14 12  1  6
 14  5  1  0
 14 15  1  0
 15 16  1  1
 16 17  1  0
 17 18  2  0
 17 19  1  0
 19 20  2  0
 20 21  1  0
 21 22  2  0
 22 23  1  0
 23 24  2  0
 24 19  1  0
 15 25  1  0
 25 26  1  1
 25 27  1  0
 27 28  1  0
 28 29  1  1
 29 30  1  0
 30 31  2  0
 30 32  1  0
 32 33  1  1
 32 34  1  0
 34 35  1  1
 35 36  1  0
 36 37  2  0
 36 38  1  0
 38 39  1  0
 39 40  1  0
 39 41  1  0
 39 42  1  0
 34 43  1  0
 43 44  2  0
 44 45  1  0
 45 46  2  0
 46 47  1  0
 47 48  2  0
 48 43  1  0
 28 49  1  0
 49 50  2  3
 50 51  1  0
 51 52  1  1
 51 53  1  0
 53 12  1  0
 53 54  2  0
 50 55  1  0
 55 25  1  0
 55 56  1  0
 55 57  1  0
 49 58  1  0
M  END
> <name>
NCI_AOD5_2014

> <id>
2597

> <plate>
NCI_V5_A

> <well>
E06

> <supplier_cmpd_name>
Docetaxel

> <ctcr_id>
5850

> <supplier_cmpd_id>
628503

> <smiles>
CC(=O)O[C@@]12CO[C@@H]1C[C@H](O)[C@]3(C)[C@@H]2[C@H](OC(=O)c4ccccc4)[C@]5(O)C[C@H](OC(=O)[C@H](O)[C@@H](NC(=O)OC(C)(C)C)c6ccccc6)C(=C([C@@H](O)C3=O)C5(C)C)C

> <pd_targets>
{MAPK1,FFP,FTL,KMT2A,MEN1,RORC,KIF11,EGFR,GHRHR,TUBA1A,TUBA1B,TUBA1C,TUBA3C,TUBA3E,TUBA4A,TUBB,TUBB1,TUBB2A,TUBB2B,TUBB3,TUBB4A,TUBB4B,TUBB6,TUBB8,NOD2,ABCB11,CYP3A4,TACR2,TUBB5,NR1I2}

> <pathway_gtopdb>
{Enzyme,"Unclassified protein","Epigenetic regulator","Transcription factor","Other cytosolic protein","Membrane receptor","Structural protein",Transporter,Kinase,Transferase,Reader,"Nuclear receptor"
,"Family B G protein-coupled receptor","Primary active transporter","Cytochrome P450","Family A G protein-coupled receptor","Protein Kinase",Bromodomain,"Nuclear hormone receptor subfamily 1","Peptide
 receptor (family B GPCR)","ATP-binding cassette","Cytochrome P450 family 3","Peptide receptor (family A GPCR)","CMGC protein kinase group","Nuclear hormone receptor subfamily 1 group F","TK protein k
inase group","Glucagon-like receptor","ABCB subfamily","Cytochrome P450 family 3A","Short peptide receptor (family A GPCR)","Nuclear hormone receptor subfamily 1 group I","CMGC protein kinase MAPK fam
ily","Nuclear hormone receptor subfamily 1 group F member 3","Tyrosine protein kinase EGFR family","Growth hormone-releasing hormone receptor","Cytochrome P450 3A4","Neurokinin receptor","Nuclear horm
one receptor subfamily 1 group I member 2","CMGC protein kinase ERK1"}

> <pathway_chembl>
{Enzymes,Receptors,"Other protein targets",Transporters,"Kinases (EC 2.7.x.x)","Nuclear hormone receptors",Kinesins,"Catalytic receptors","G protein-coupled receptors","ATP-binding cassette transporte
r family","Cytochrome P450",Tubulins,"CMGC: Containing CDK",MAPK,GSK3,"CLK families","1F. Retinoic acid-related orphans","Receptor kinases","Glucagon receptor family","Pattern recognition receptors","
ABCB subfamily","CYP3 family","Tachykinin receptors","1I. Vitamin D receptor-like receptors","Mitogen-activated protein kinases (MAP kinases)","TK: Tyrosine kinase","NOD-like receptor family","ERK sub
family","Receptor tyrosine kinases (RTKs)","Type I RTKs: ErbB (epidermal growth factor) receptor family"}

> <pathway_reactome>
{"Immune System","Vesicle-mediated transport","Gene expression (Transcription)","Signal Transduction",Disease,Metabolism,"Cell Cycle","Metabolism of proteins","Innate Immune System","Membrane Traffick
ing","RNA Polymerase II Transcription","Signaling by GPCR","Infectious disease","Metabolism of lipids",Mitotic,"Post-translational protein modification","Toll-like Receptor Cascades","trans-Golgi Netw
ork Vesicle Budding","Generic Transcription Pathway","Intra-Golgi and retrograde Golgi-to-ER traffic","GPCR downstream signalling","Leishmania infection","Metabolism of steroids","Biosynthesis of spec
ialized proresolving mediators (SPMs)","GPCR ligand binding","Mitotic G2-G2/M phases",SUMOylation,"Toll Like Receptor 5 (TLR5) Cascade","Golgi Associated Vesicle Biogenesis","Transcriptional regulatio
n by RUNX3","Golgi-to-ER retrograde transport","G alpha (q) signalling events","Leishmania parasite growth and survival","Bile acid and bile salt metabolism","Biosynthesis of DHA-derived SPMs","Class 
A/1 (Rhodopsin-like receptors)","G2/M Transition","SUMO E3 ligases SUMOylate target proteins","MyD88 cascade initiated on plasma membrane","RUNX3 Regulates Immune Response and Cell Migration","COPI-de
pendent Golgi-to-ER retrograde traffic","Gastrin-CREB signalling pathway via PKC and MAPK","Anti-inflammatory response favouring Leishmania parasite infection","Synthesis of bile acids and bile salts"
,"Biosynthesis of maresins","Peptide ligand-binding receptors","Centrosome maturation","SUMOylation of intracellular receptors","MAP kinase activation","EGFR Transactivation by Gastrin","ADORA2B media
ted anti-inflammatory cytokines production","Synthesis of bile acids and bile salts via 7alpha-hydroxycholesterol","Biosynthesis of maresin-like SPMs","Tachykinin receptors bind tachykinins","Loss of 
proteins required for interphase microtubule organization from the centrosome","MAPK targets/ Nuclear events mediated by MAP kinases","activated TAK1 mediates p38 MAPK activation","Loss of Nlp from mi
totic centrosomes","ERK/MAPK targets","ERKs are inactivated"}

> <broad_targets>
{BCL2,MAP2,MAP4,MAPT,NR1I2,TUBA1A,TUBA1B,TUBA1C,TUBA3C,TUBA3D,TUBA3E,TUBA4A,TUBB,TUBB1,TUBB2A,TUBB2B,TUBB3,TUBB4A,TUBB4B,TUBB6,TUBB8}

> <broad_moa>
{"tubulin polymerization inhibitor"}

> <synonyms>
{"Docetaxel (INN)","Docetaxel Winthrop",docetaxel,Taxotere,114977-28-5,114977285,"114977 28 5","Docetaxel anhydrous",Docetaxol,RP-56976,RP56976,"RP 56976",EmDOC,"NSC 628503",N-debenzoyl-N-tert-butoxyc
arbonyl-10-deacetyltaxol,NdebenzoylNtertbutoxycarbonyl10deacetyltaxol,NdebenzoylNtertbut,628503,Docetaxel}

> <pdid>
PD003020

> <targets>
{}

> <classes>
{"Microtubule inhibitor"}

> <pubchem_cids>
{148124}

$$$$
NCI_AOD5_2014
  SciTegic11012412592D

 46 53  0  0  1  0            999 V2000
    2.6018   -5.9994    0.0000 C   0  0
    3.9008   -5.2492    0.0000 O   0  0
    3.9014   -3.7484    0.0000 C   0  0
    2.6012   -3.0004    0.0000 C   0  0
    2.5987   -1.5004    0.0000 C   0  0
    3.8967   -0.7484    0.0000 C   0  0
    5.1969   -1.4963    0.0000 C   0  0
    6.4939   -0.7411    0.0000 O   0  0
    6.4894    0.7589    0.0000 C   0  0
    5.1993   -2.9963    0.0000 C   0  0
    6.4995   -3.7442    0.0000 O   0  0
    1.2990   -0.7500    0.0000 C   0  0  1  0  0  0
    1.2990    0.7500    0.0000 C   0  0  2  0  0  0
    0.0000    1.5000    0.0000 C   0  0  2  0  0  0
    0.3114    2.9665    0.0000 C   0  0
    1.8032    3.1233    0.0000 O   0  0
    2.4133    1.7530    0.0000 C   0  0
    3.8805    1.4410    0.0000 O   0  0
   -1.2990    0.7500    0.0000 C   0  0  2  0  0  0
   -2.5973    1.5031    0.0000 O   0  0
   -2.5951    3.0039    0.0000 C   0  0
   -1.2935    3.7495    0.0000 O   0  0
   -1.2883    5.2495    0.0000 C   0  0
    0.0133    5.9950    0.0000 C   0  0
    0.0185    7.4950    0.0000 O   0  0
   -1.2780    8.2495    0.0000 C   0  0  2  0  0  0
   -2.5796    7.5040    0.0000 O   0  0
   -2.5848    6.0040    0.0000 C   0  0
   -3.8864    5.2585    0.0000 C   0  0
   -5.1828    6.0129    0.0000 O   0  0
   -3.8915    3.7585    0.0000 C   0  0
   -5.1932    3.0130    0.0000 O   0  0
   -1.2728    9.7502    0.0000 C   0  0
   -2.4820   10.6162    0.0000 S   0  0
   -2.0113   12.0404    0.0000 C   0  0
   -0.5113   12.0329    0.0000 C   0  0
   -0.0550   10.6040    0.0000 C   0  0
   -1.2990   -0.7500    0.0000 C   0  0
   -2.5981   -1.5000    0.0000 C   0  0
   -2.5981   -3.0000    0.0000 C   0  0
   -3.7124   -4.0030    0.0000 O   0  0
   -3.1022   -5.3733    0.0000 C   0  0
   -1.6105   -5.2165    0.0000 O   0  0
   -1.2990   -3.7500    0.0000 C   0  0
    0.0000   -3.0000    0.0000 C   0  0
    0.0000   -1.5000    0.0000 C   0  0
  1  2  1  0
  2  3  1  0
  3  4  2  0
  4  5  1  0
  5  6  2  0
  6  7  1  0
  7  8  1  0
  8  9  1  0
  7 10  2  0
 10  3  1  0
 10 11  1  0
 12  5  1  6
 12 13  1  0
 13 14  1  0
 14 15  1  1
 15 16  1  0
 16 17  1  0
 13 17  1  6
 17 18  2  0
 14 19  1  0
 19 20  1  1
 20 21  1  0
 21 22  1  0
 22 23  1  0
 23 24  1  0
 24 25  1  0
 25 26  1  0
 26 27  1  0
 27 28  1  0
 28 23  1  0
 28 29  1  0
 29 30  1  0
 29 31  1  0
 31 21  1  0
 31 32  1  0
 26 33  1  6
 33 34  1  0
 34 35  1  0
 35 36  2  0
 36 37  1  0
 37 33  2  0
 19 38  1  0
 38 39  2  0
 39 40  1  0
 40 41  1  0
 41 42  1  0
 42 43  1  0
 43 44  1  0
 44 40  2  0
 44 45  1  0
 45 46  2  0
 46 12  1  0
 46 38  1  0
M  END
> <name>
NCI_AOD5_2014

> <id>
2598

> <plate>
NCI_V5_A

> <well>
E07

> <supplier_cmpd_name>
Teniposide

> <ctcr_id>
2372

> <supplier_cmpd_id>
122819

> <smiles>
COc1cc(cc(OC)c1O)[C@H]2[C@@H]3[C@H](COC3=O)[C@H](OC4OC5CO[C@H](OC5C(O)C4O)c6sccc6)c7cc8OCOc8cc27

> <pd_targets>
{TOP2A,TOP2B,ABCC4,ABCC3,RORC,NCOA3,GAA,ATM}

> <pathway_gtopdb>
{Enzyme,Transporter,"Transcription factor","Epigenetic regulator",Isomerase,"Primary active transporter","Nuclear receptor",Writer,Hydrolase,Kinase,"ATP-binding cassette","Nuclear hormone receptor sub
family 1","Histone acetyltransferase","Protein Kinase","ABCC subfamily","Nuclear hormone receptor subfamily 1 group F","SRC family","Atypical protein kinase group","Nuclear hormone receptor subfamily 
1 group F member 3","Atypical protein kinase PIKK family"}

> <pathway_chembl>
{Transporters,Enzymes,Receptors,"ATP-binding cassette transporter family","DNA topoisomerases","Nuclear hormone receptors","Chromatin modifying enzymes","3.2.1.- Glycosidases","Kinases (EC 2.7.x.x)","
ABCC subfamily","1F. Retinoic acid-related orphans","2.3.1.48 Histone acetyltransferases (HATs)",Atypical,"Phosphatidyl inositol 3' kinase-related kinases (PIKK) family","Other PIKK family kinases"}

> <pathway_reactome>
{Hemostasis,Metabolism,"Cell Cycle","Gene expression (Transcription)",Disease,"Platelet activation","signaling and aggregation","Metabolism of lipids",Mitotic,"RNA Polymerase II Transcription","Diseas
es of metabolism","Cell Cycle Checkpoints","Response to elevated platelet cytosolic Ca2+","Metabolism of steroids","Mitotic G1 phase and G1/S transition","Generic Transcription Pathway","Regulation of
 lipid metabolism by PPARalpha","Diseases of carbohydrate metabolism","G1/S DNA Damage Checkpoints","Platelet degranulation","Bile acid and bile salt metabolism","G0 and Early G1","Transcriptional reg
ulation by RUNX3","PPARA activates gene expression","Glycogen storage diseases","p53-Dependent G1/S DNA damage checkpoint","Recycling of bile acids and salts","Transcription of E2F targets under negat
ive control by DREAM complex","RUNX3 Regulates Immune Response and Cell Migration","Glycogen storage disease type II (GAA)","p53-Dependent G1 DNA Damage Response","Stabilization of p53","Autodegradati
on of the E3 ubiquitin ligase COP1"}

> <broad_targets>
{TOP2A,TOP2B}

> <broad_moa>
{"topoisomerase inhibitor"}

> <synonyms>
{teniposide,Veham-Sandoz,VehamSandoz,"VM 26",NSC-122819,NSC122819,PTG,"Vumon (Bristol Meyers)",CHEMBL2003481,AB01273974-01,AB0127397401,"4'-Demethylepipodophyllotoxin thenylidene glucoside","4'Demethy
lepipodophyllotoxin thenylidene glucoside",4-Demethylepipodophyllotoxin-.beta.-D-thenylideneglucoside,4Demethylepipodophyllotoxin.beta.Dthenylideneglucoside,Epipodophyllotoxin,T1523,122819,"NSC 122819
.
NSC 122819
NSC 122819",Teniposide}

> <pdid>
PD001289

> <targets>
{}

> <classes>
{"Topoisomerase II Inhibitors"}

> <pubchem_cids>
{54610154}

$$$$
NCI_AOD5_2014
  SciTegic11012412592D

 16 17  0  0  0  0            999 V2000
    7.0533   -0.4702    0.0000 O   0  0
    6.4430   -1.8405    0.0000 C   0  0
    4.9531   -1.9978    0.0000 C   0  0
    3.9511   -0.8815    0.0000 O   0  0
    2.5987   -1.5004    0.0000 C   0  0
    2.7343   -2.9815    0.0000 C   0  0
    4.2010   -3.2956    0.0000 C   0  0
    4.8089   -4.6669    0.0000 O   0  0
    1.2990   -0.7500    0.0000 N   0  0
    1.2990    0.7500    0.0000 C   0  0
    0.0000    1.5000    0.0000 N   0  0
   -1.2990    0.7500    0.0000 C   0  0
   -2.5981    1.5000    0.0000 N   0  0
   -1.2990   -0.7500    0.0000 N   0  0
    0.0000   -1.5000    0.0000 C   0  0
    0.0000   -3.0000    0.0000 O   0  0
  1  2  1  0
  2  3  1  0
  3  4  1  0
  4  5  1  0
  5  6  1  0
  6  7  1  0
  7  3  1  0
  7  8  1  0
  5  9  1  0
  9 10  1  0
 10 11  2  3
 11 12  1  0
 12 13  2  0
 12 14  1  0
 14 15  1  0
 15  9  1  0
 15 16  2  0
M  END
> <name>
NCI_AOD5_2014

> <id>
2599

> <plate>
NCI_V5_A

> <well>
E08

> <supplier_cmpd_name>
Decitabine

> <ctcr_id>
5466

> <supplier_cmpd_id>
127716

> <smiles>
OCC1OC(CC1O)N2C=NC(=N)NC2=O

> <pd_targets>
.

> <pathway_gtopdb>
.

> <pathway_chembl>
.

> <pathway_reactome>
.

> <broad_targets>
.

> <broad_moa>
.

> <synonyms>
{22432-95-7,22432957,"4-amino-1-(4-hydroxy-5-(hydroxymethyl)oxolan-2-yl)-1,3,5-triazin-2-one","4amino1(4hydroxy5(hydroxymethyl)oxolan2yl)1,3,5triazin2one","5-Aza-2'-deoxycytidine;NSC 127716","5Aza2'de
oxycytidine;NSC 127716","4-amino-1-(4-hydroxy-5-(hydroxymethyl)-2-oxolanyl)-1,3,5-triazin-2-one","4amino1(4hydroxy5(hydroxymethyl)2oxolanyl)1,3,5triazin2one",1,3,5-Triazin-2(1H)-one,5Triazin2(1H)one,4
-amino-1-(2-deoxy-beta-D-eryt,4amino1(2deoxybetaDeryt,127716,S1200,"NSC 127716",Decitabine}

> <pdid>

> <targets>
{DNA Methyltransferase,Apoptosis,Nucleoside Antimetabolite/Analog}

> <classes>
{Anti-metabolite,Epigenetics,Apoptosis,Cell Cycle/DNA Damage}

> <pubchem_cids>
{16886}

$$$$
NCI_AOD5_2014
  SciTegic11012412592D

 65 68  0  0  1  0            999 V2000
    6.9056    4.5744    0.0000 C   0  0
    6.6527    6.0529    0.0000 O   0  0
    5.2453    6.5743    0.0000 C   0  0  2  0  0  0
    4.0927    5.6144    0.0000 C   0  0
    2.6850    6.1326    0.0000 C   0  0  1  0  0  0
    2.4301    7.6108    0.0000 C   0  0
    3.5827    8.5707    0.0000 C   0  0
    4.9903    8.0525    0.0000 C   0  0  1  0  0  0
    6.1429    9.0124    0.0000 O   0  0
    1.5337    5.1698    0.0000 C   0  0
    1.7909    3.6911    0.0000 C   0  0  1  0  0  0
    3.1995    3.1753    0.0000 C   0  0
    0.6400    2.7300    0.0000 C   0  0  2  0  0  0
    0.8000    1.1200    0.0000 C   0  0
    2.0600    0.3500    0.0000 C   0  0
    1.8870   -1.1400    0.0000 O   0  0
    3.4300    0.8000    0.0000 C   0  0  2  0  0  0
    3.8662    2.2352    0.0000 C   0  0
    4.3600   -0.3900    0.0000 C   0  0
    5.8000   -0.4000    0.0000 C   0  0
    6.6151    0.8592    0.0000 C   0  0
    6.4400   -1.8000    0.0000 C   0  0  1  0  0  0
    7.9345   -1.9281    0.0000 O   0  0
    5.5100   -3.1600    0.0000 C   0  0  1  0  0  0
    4.0182   -3.2790    0.0000 O   0  0
    3.1659   -2.0447    0.0000 C   0  0
    6.5100   -4.2800    0.0000 C   0  0
    7.9504   -3.8613    0.0000 O   0  0
    6.2500   -5.8600    0.0000 C   0  0  2  0  0  0
    7.5042   -6.6827    0.0000 C   0  0
    4.8700   -6.7500    0.0000 C   0  0
    3.3400   -6.2300    0.0000 C   0  0  2  0  0  0
    2.3025   -7.3134    0.0000 C   0  0
    2.7800   -4.7900    0.0000 C   0  0
    1.1200   -4.8600    0.0000 C   0  0
    0.1200   -3.6900    0.0000 C   0  0
   -1.4100   -4.1500    0.0000 C   0  0
   -2.6300   -3.1700    0.0000 C   0  0
   -4.1200   -3.7800    0.0000 C   0  0
   -4.3154   -5.2672    0.0000 C   0  0
   -5.3700   -2.8300    0.0000 C   0  0  2  0  0  0
   -6.8600   -3.4400    0.0000 C   0  0
   -7.8600   -2.2400    0.0000 C   0  0  2  0  0  0
   -9.2500   -2.5000    0.0000 C   0  0
  -10.1800   -1.4400    0.0000 C   0  0
   -9.7100    0.0100    0.0000 C   0  0  1  0  0  0
  -10.7377    1.1027    0.0000 C   0  0
   -8.0800    0.4300    0.0000 C   0  0  1  0  0  0
   -8.4778    1.8763    0.0000 O   0  0
   -7.2300   -0.9300    0.0000 O   0  0
   -6.6100    0.8600    0.0000 C   0  0
   -5.5855   -0.2356    0.0000 O   0  0
   -6.1000    2.2500    0.0000 C   0  0
   -7.0129    3.4402    0.0000 O   0  0
   -4.5400    2.3900    0.0000 N   0  0
   -5.4800    3.8300    0.0000 C   0  0
   -4.8400    5.2900    0.0000 C   0  0
   -3.4600    5.5000    0.0000 C   0  0
   -2.6400    4.4900    0.0000 C   0  0
   -3.1200    3.1200    0.0000 C   0  0  1  0  0  0
   -1.9000    2.2900    0.0000 C   0  0
   -1.8545    0.7907    0.0000 O   0  0
   -0.7100    3.2100    0.0000 O   0  0
   -5.1613   -1.3445    0.0000 O   0  0
   -3.7708   -0.7819    0.0000 C   0  0
  1  2  1  0
  3  2  1  6
  3  4  1  0
  4  5  1  0
  5  6  1  0
  6  7  1  0
  7  8  1  0
  8  3  1  0
  8  9  1  1
  5 10  1  6
 10 11  1  0
 11 12  1  1
 11 13  1  0
 13 14  1  6
 14 15  1  0
 15 16  2  0
 15 17  1  0
 17 18  1  6
 17 19  1  0
 19 20  2  0
 20 21  1  0
 20 22  1  0
 22 23  1  1
 22 24  1  0
 24 25  1  6
 25 26  1  0
 24 27  1  0
 27 28  2  0
 27 29  1  0
 29 30  1  6
 29 31  1  0
 31 32  1  0
 32 33  1  6
 32 34  1  0
 34 35  2  0
 35 36  1  0
 36 37  2  0
 37 38  1  0
 38 39  2  0
 39 40  1  0
 39 41  1  0
 41 42  1  0
 43 42  1  6
 43 44  1  0
 44 45  1  0
 45 46  1  0
 46 47  1  1
 46 48  1  0
 48 49  1  1
 48 50  1  0
 50 43  1  0
 48 51  1  0
 51 52  2  0
 51 53  1  0
 53 54  2  0
 53 55  1  0
 55 56  1  0
 56 57  1  0
 57 58  1  0
 58 59  1  0
 60 59  1  1
 60 55  1  0
 60 61  1  0
 61 62  2  0
 61 63  1  0
 63 13  1  0
 41 64  1  6
 64 65  1  0
M  END
> <name>
NCI_AOD5_2014

> <id>
2600

> <plate>
NCI_V5_A

> <well>
E09

> <supplier_cmpd_name>
Sirolimus

> <ctcr_id>
4804

> <supplier_cmpd_id>
226080

> <smiles>
CO[C@@H]1C[C@@H](CC[C@H]1O)C[C@@H](C)[C@@H]2CC(=O)[C@H](C)\C=C(C)\[C@@H](O)[C@@H](OC)C(=O)[C@H](C)C[C@H](C)/C=C/C=C/C=C(C)/[C@H](C[C@@H]3CC[C@@H](C)[C@@](O)(O3)C(=O)C(=O)N4CCCC[C@H]4C(=O)O2)OC

> <pd_targets>
{FKBP1B,MAPT,FFP,FTL,TGR,RORC,FKBP1A,MTOR,NR1I2,FKBP5,EIF4E,ATP2A1,PDCD4,CYP2C9,CYP3A4,SLCO1B1,ABCB1,CYP2C19,FGF2}

> <pathway_gtopdb>
{Enzyme,"Other cytosolic protein","Unclassified protein","Transcription factor","Other nuclear protein",Transporter,"Secreted protein",Isomerase,Transferase,"Nuclear receptor",Kinase,"Primary active t
ransporter","Cytochrome P450","Electrochemical transporter","Nuclear hormone receptor subfamily 1","Protein Kinase","P-type ATPase","Cytochrome P450 family 2","Cytochrome P450 family 3","SLC superfami
ly of solute carriers","ATP-binding cassette","Nuclear hormone receptor subfamily 1 group F","Atypical protein kinase group","Nuclear hormone receptor subfamily 1 group I","Calcium ATPase","Cytochrome
 P450 family 2C","Cytochrome P450 family 3A","SLC21/SLCO family of organic anion transporting polypeptides","ABCB subfamily","Nuclear hormone receptor subfamily 1 group F member 3","Atypical protein k
inase PIKK family","Nuclear hormone receptor subfamily 1 group I member 2","Cytochrome P450 2C9","Cytochrome P450 3A4","Cytochrome P450 2C19","Atypical protein kinase FRAP subfamily"}

> <pathway_chembl>
{Receptors,Enzymes,Transporters,"Nuclear hormone receptors","Peptidyl-prolyl cis/trans isomerases","Kinases (EC 2.7.x.x)","P-type ATPases","Cytochrome P450","SLC superfamily of solute carriers","ATP-b
inding cassette transporter family","1F. Retinoic acid-related orphans",Atypical,"1I. Vitamin D receptor-like receptors","P2A P-type ATPases: Ca<sup>2+</sup>-ATPases","CYP2 family: drug metabolising s
ubset","CYP3 family","SLCO family of organic anion transporting polypeptides","ABCB subfamily","Phosphatidyl inositol 3' kinase-related kinases (PIKK) family","FRAP subfamily"}

> <pathway_reactome>
{"Muscle contraction","Neuronal System","Vesicle-mediated transport","Gene expression (Transcription)",Disease,"Metabolism of proteins",Hemostasis,"Immune System",Metabolism,"Cardiac conduction","Tran
smission across Chemical Synapses","Membrane Trafficking","RNA Polymerase II Transcription","Diseases of signal transduction by growth factor receptors and second messengers","Post-translational prote
in modification",Translation,"Platelet homeostasis","Cytokine Signaling in Immune system","Biological oxidations","Metabolism of lipids","Abacavir transport and metabolism","Ion homeostasis","Neurotra
nsmitter receptors and postsynaptic signal transmission","trans-Golgi Network Vesicle Budding","Generic Transcription Pathway","Signaling by TGF-beta Receptor Complex in Cancer",SUMOylation,"Eukaryoti
c Translation Initiation","Platelet calcium homeostasis","Signaling by Interleukins","Phase I - Functionalization of compounds","Biosynthesis of specialized proresolving mediators (SPMs)","Metabolism 
of steroids","Abacavir transmembrane transport","Signaling by FGFR in disease","Activation of NMDA receptors and postsynaptic events","Golgi Associated Vesicle Biogenesis","Transcriptional regulation 
by RUNX3","Loss of Function of TGFBR1 in Cancer","Transcriptional Regulation by TP53","SUMO E3 ligases SUMOylate target proteins","Transcriptional Regulation by MECP2","Cap-dependent Translation Initi
ation","Reduction of cytosolic Ca++ levels","Interleukin-12 family signaling","Cytochrome P450 - arranged by substrate type","Biosynthesis of DHA-derived SPMs","Bile acid and bile salt metabolism","Si
gnaling by FGFR3 in disease","Post NMDA receptor activation events","RUNX3 Regulates Immune Response and Cell Migration","TGFBR1 LBD Mutants in Cancer","Regulation of TP53 Activity","SUMOylation of in
tracellular receptors","MECP2 regulates neuronal receptors and channels","Activation of the mRNA upon binding of the cap-binding complex and eIFs","and subsequent binding to 43S","Interleukin-12 signa
ling",Xenobiotics,"Biosynthesis of maresins","Recycling of bile acids and salts","Signaling by FGFR3 point mutants in cancer","Activation of AMPK downstream of NMDARs","Regulation of TP53 Expression a
nd Degradation","Translation initiation complex formation","Gene and protein expression by JAK-STAT signaling after Interleukin-12 stimulation","CYP2E1 reactions","Biosynthesis of maresin-like SPMs","
FGFR3 mutant receptor activation","Regulation of TP53 Degradation","Signaling by activated point mutants of FGFR3"}

> <broad_targets>
{FKBP1A,MTOR}

> <broad_moa>
{"mTOR inhibitor"}

> <synonyms>
{(-)-Rapamycin,()Rapamycin,"( ) Rapamycin",53123-88-9,53123889,"53123 88 9","AY 22989",AY-22989,AY22989,"I 2190A",I-2190A,I2190A,"NSC 226080",RAPA,Rapammune,Rapamune,Rapamycin,"SIIA 9268A",Sirolimus,"
Wy 090217","Rapamycin (Sirolimus)",Antibiotic,226080,S1039,NSC226080,A-275,"NSC 226080
NSC 226080
NSC 226080",sirolimus,Rapamycin(Sirolimus)}

> <pdid>
PD003274

> <targets>
{mTOR}

> <classes>
{"mTOR inhibitor"}

> <pubchem_cids>
{5284616}

$$$$
NCI_AOD5_2014
  SciTegic11012412592D

 51 55  0  0  1  0            999 V2000
   11.6876   -0.2781    0.0000 C   0  0
   10.3530    0.4064    0.0000 C   0  0
    9.0916   -0.4068    0.0000 C   0  0
    7.7561    0.2782    0.0000 C   0  0
    6.4947   -0.5351    0.0000 C   0  0
    6.5688   -2.0333    0.0000 O   0  0
    5.1593    0.1499    0.0000 O   0  0
    3.8979   -0.6634    0.0000 C   0  0
    2.5625    0.0216    0.0000 C   0  0
    2.4885    1.5197    0.0000 O   0  0
    1.2990   -0.7500    0.0000 C   0  0  1  0  0  0
    1.2623   -2.2495    0.0000 O   0  0
    1.2990    0.7500    0.0000 C   0  0
    0.0000    1.5000    0.0000 C   0  0  2  0  0  0
    0.0031    3.0008    0.0000 O   0  0
    1.3039    3.7494    0.0000 C   0  0
    1.3092    5.2494    0.0000 C   0  0
    2.6108    5.9949    0.0000 C   0  0
    2.6129    7.4958    0.0000 N   0  0
    1.3146    8.2488    0.0000 C   0  0
    0.0143    7.5010    0.0000 O   0  0
    1.3167    9.7496    0.0000 C   0  0
    0.0192   10.5023    0.0000 F   0  0
    1.3195   11.2496    0.0000 F   0  0
    2.6171   10.4974    0.0000 F   0  0
    3.9072    5.2405    0.0000 C   0  0
    5.2088    5.9860    0.0000 O   0  0
    3.9020    3.7405    0.0000 C   0  0
    5.1985    2.9860    0.0000 C   0  0
    2.6004    2.9949    0.0000 O   0  0
   -1.2990    0.7500    0.0000 C   0  0
   -2.5981    1.5000    0.0000 C   0  0
   -2.5981    3.0000    0.0000 O   0  0
   -3.8971    0.7500    0.0000 C   0  0
   -5.1962    1.5000    0.0000 C   0  0
   -5.1962    3.0000    0.0000 O   0  0
   -6.4952    0.7500    0.0000 C   0  0
   -7.7943    1.4999    0.0000 C   0  0
   -7.7974    3.0008    0.0000 O   0  0
   -9.0975    3.7489    0.0000 C   0  0
   -9.0933    0.7499    0.0000 C   0  0
   -9.0933   -0.7501    0.0000 C   0  0
   -7.7942   -1.5001    0.0000 C   0  0
   -6.4952   -0.7500    0.0000 C   0  0
   -5.1961   -1.5000    0.0000 C   0  0
   -5.1961   -3.0000    0.0000 O   0  0
   -3.8971   -0.7500    0.0000 C   0  0
   -2.5981   -1.5000    0.0000 C   0  0
   -2.5981   -3.0000    0.0000 O   0  0
   -1.2990   -0.7500    0.0000 C   0  0
    0.0000   -1.5000    0.0000 C   0  0
  1  2  1  0
  2  3  1  0
  3  4  1  0
  4  5  1  0
  5  6  2  0
  5  7  1  0
  7  8  1  0
  8  9  1  0
  9 10  2  0
  9 11  1  0
 11 12  1  1
 11 13  1  0
 13 14  1  0
 14 15  1  1
 15 16  1  0
 16 17  1  0
 17 18  1  0
 18 19  1  0
 19 20  1  0
 20 21  2  0
 20 22  1  0
 22 23  1  0
 22 24  1  0
 22 25  1  0
 18 26  1  0
 26 27  1  0
 26 28  1  0
 28 29  1  0
 28 30  1  0
 30 16  1  0
 14 31  1  0
 31 32  2  0
 32 33  1  0
 32 34  1  0
 34 35  1  0
 35 36  2  0
 35 37  1  0
 37 38  2  0
 38 39  1  0
 39 40  1  0
 38 41  1  0
 41 42  2  0
 42 43  1  0
 43 44  2  0
 44 37  1  0
 44 45  1  0
 45 46  2  0
 45 47  1  0
 47 34  2  0
 47 48  1  0
 48 49  1  0
 48 50  2  0
 50 31  1  0
 50 51  1  0
 51 11  1  0
M  END
> <name>
NCI_AOD5_2014

> <id>
2601

> <plate>
NCI_V5_A

> <well>
E10

> <supplier_cmpd_name>
Valrubicin

> <ctcr_id>
5987

> <supplier_cmpd_id>
246131

> <smiles>
CCCCC(=O)OCC(=O)[C@@]1(O)C[C@H](OC2CC(NC(=O)C(F)(F)F)C(O)C(C)O2)c3c(O)c4C(=O)c5c(OC)cccc5C(=O)c4c(O)c3C1

> <pd_targets>
{ABCC2,ABCB11,ABCC3,ABCC4,TOP2A}

> <pathway_gtopdb>
{Transporter,Enzyme,"Other nuclear protein","Primary active transporter",Isomerase,"ATP-binding cassette","ABCC subfamily","ABCB subfamily"}

> <pathway_chembl>
{Transporters,Enzymes,"ATP-binding cassette transporter family","DNA topoisomerases","ABCC subfamily","ABCB subfamily"}

> <pathway_reactome>
{Disease,Metabolism,Hemostasis,"Cell Cycle","Disorders of transmembrane transporters","Metabolism of lipids","Platelet activation","signaling and aggregation",Mitotic,"ABC transporter disorders","Meta
bolism of steroids","Response to elevated platelet cytosolic Ca2+","Mitotic G1 phase and G1/S transition","Defective ABCC2 causes DJS","Bile acid and bile salt metabolism","Platelet degranulation","G0
 and Early G1","Synthesis of bile acids and bile salts","Recycling of bile acids and salts","Transcription of E2F targets under negative control by DREAM complex","Synthesis of bile acids and bile sal
ts via 7alpha-hydroxycholesterol"}

> <broad_targets>
{TOP2A}

> <broad_moa>
{"DNA inhibitor","topoisomerase inhibitor"}

> <synonyms>
{N-Trifluoroacetyladriamycin-14-valerate,NTrifluoroacetyladriamycin14valerate,"N Trifluoroacetyladriamycin 14 valerate","AD 32",Trifluoroacetyladriamycin-14-valerate,Trifluoroacetyladriamycin14valerat
e,"Trifluoroacetyladriamycin 14 valerate",MLS,246131,"NSC 246131",Valrubicin}

> <pdid>
PD004090

> <targets>
{Antibiotic,PKC}

> <classes>
{Topoisomerase II Inhibitors,Anti-infection,Epigenetics,TGF-beta/Smad}

> <pubchem_cids>
{41744}

$$$$
NCI_AOD5_2014
  SciTegic11012412592D

 15 15  0  0  0  0            999 V2000
    5.1873   -7.5109    0.0000 Cl  0  0
    5.1894   -6.0109    0.0000 C   0  0
    3.8912   -5.2578    0.0000 C   0  0
    3.8933   -3.7570    0.0000 N   0  0
    5.1959   -3.0115    0.0000 N   0  0
    6.4926   -3.7656    0.0000 O   0  0
    2.5951   -3.0039    0.0000 C   0  0
    1.2948   -3.7516    0.0000 O   0  0
    2.5973   -1.5031    0.0000 N   0  0
    1.2990   -0.7500    0.0000 C   0  0
    1.2990    0.7500    0.0000 C   0  0
    0.0000    1.5000    0.0000 C   0  0
   -1.2990    0.7500    0.0000 C   0  0
   -1.2990   -0.7500    0.0000 C   0  0
    0.0000   -1.5000    0.0000 C   0  0
  1  2  1  0
  2  3  1  0
  3  4  1  0
  4  5  1  0
  5  6  2  0
  4  7  1  0
  7  8  2  0
  7  9  1  0
  9 10  1  0
 10 11  1  0
 11 12  1  0
 12 13  1  0
 13 14  1  0
 14 15  1  0
 15 10  1  0
M  END
> <name>
NCI_AOD5_2014

> <id>
2602

> <plate>
NCI_V5_A

> <well>
E11

> <supplier_cmpd_name>
Lomustine

> <ctcr_id>
1274

> <supplier_cmpd_id>
79037

> <smiles>
ClCCN(N=O)C(=O)NC1CCCCC1

> <pd_targets>
{STMN4}

> <pathway_gtopdb>
{}

> <pathway_chembl>
{}

> <pathway_reactome>
{}

> <broad_targets>
.

> <broad_moa>
.

> <synonyms>
{AKOS005766022,Tox21_112470_1,Tox211124701,Tox21-112470-1,"Tox21 112470 1",lomustine,13010-47-4,13010474,1-(2-Chloroethyl)-3-cyclohexyl-1-nitrosourea,1(2Chloroethyl)3cyclohexyl1nitrosourea,Belustine,C
CNU,CeeNU,Cecenu,CINU,Chloroethylcyclohexylnitrosourea,"Urea, N-(2-chloroethyl)-N'-cyclohexyl-N-nitroso-","Urea, N(2chloroethyl)N'cyclohexylNnitroso",Lomustina,Lomustinum,Lomustinu,T1601,79037,"NSC 79
037",Lomustine}

> <pdid>
PD001312

> <targets>
{Apoptosis,Autophagy,DNA Alkylator/Crosslinker}

> <classes>
{Alkylating agent,Apoptosis,Autophagy,Cell Cycle/DNA Damage}

> <pubchem_cids>
{3950}

$$$$
NCI_AOD5_2014
  SciTegic11012412592D

 19 18  0  0  0  0            999 V2000
    7.5987    1.5801    0.0000 H   0  3
    5.0987    1.5801    0.0000 Cl  0  5
    2.5981   -1.5000    0.0000 N   0  0
    1.2990   -0.7500    0.0000 C   0  0
    1.2990    0.7500    0.0000 N   0  0
    0.0000    1.5000    0.0000 C   0  0
    0.0000    3.0000    0.0000 O   0  0
   -1.2990    0.7500    0.0000 N   0  0
   -1.2990   -0.7500    0.0000 C   0  0
    0.0000   -1.5000    0.0000 C   0  0
   -2.5987    1.5004    0.0000 C   0  0
   -3.9492    0.8772    0.0000 O   0  0
   -4.9546    1.9903    0.0000 C   0  0
   -6.4441    1.8282    0.0000 C   0  0
   -7.0500    0.4561    0.0000 O   0  0
   -4.2067    3.2905    0.0000 C   0  0
   -4.8190    4.6599    0.0000 O   0  0
   -2.7390    2.9810    0.0000 C   0  0
   -1.6199    3.9798    0.0000 O   0  0
  3  4  1  0
  4  5  2  3
  5  6  1  0
  6  7  2  0
  6  8  1  0
  8  9  1  0
  9 10  2  3
 10  4  1  0
  8 11  1  0
 11 12  1  0
 12 13  1  0
 13 14  1  0
 14 15  1  0
 13 16  1  0
 16 17  1  0
 16 18  1  0
 18 11  1  0
 18 19  1  0
M  CHG  2   1   1   2  -1
M  END
> <name>
NCI_AOD5_2014

> <id>
2603

> <plate>
NCI_V5_A

> <well>
F02

> <supplier_cmpd_name>
Cytarabine hydrochloride

> <ctcr_id>
6627

> <supplier_cmpd_id>
63878

> <smiles>
[H+].[Cl-].NC1=NC(=O)N(C=C1)C2OC(CO)C(O)C2O

> <pd_targets>
{MAPT,NCOA3,FFP,POLB,KDM4E,GMNN,NFO,ALDH1A1,NPSR1,LMNA,PMP22,GLA,MDM2,FABI,LMP1,MTOR,POLA1,POLA2,POLD1,POLD2,POLD3,POLD4,POLE,POLE2,POLE3,PRIM1,PRIM2}

> <pathway_gtopdb>
{"Other cytosolic protein","Epigenetic regulator",Writer,"Histone acetyltransferase","SRC family",Enzyme,"Unclassified protein","Membrane receptor","Other nuclear protein",Transferase,Eraser,Hydrolase
,Oxidoreductase,"Family A G protein-coupled receptor",Ligase,Kinase,"Lysine demethylase","Peptide receptor (family A GPCR)","Protein Kinase","Jumonji domain-containing","Short peptide receptor (family
 A GPCR)","Atypical protein kinase group","Neuropeptide receptor","Atypical protein kinase PIKK family","Atypical protein kinase FRAP subfamily"}

> <pathway_chembl>
{Enzymes,"Chromatin modifying enzymes","2.3.1.48 Histone acetyltransferases (HATs)",Receptors,"G protein-coupled receptors","E3 ubiquitin ligase components","Kinases (EC 2.7.x.x)","1.14.11.- Histone d
emethylases","Neuropeptide S receptor",Atypical,"Phosphatidyl inositol 3' kinase-related kinases (PIKK) family","FRAP subfamily"}

> <pathway_reactome>
{"Neuronal System",Metabolism,"Transmission across Chemical Synapses","Metabolism of lipids","Neurotransmitter receptors and postsynaptic signal transmission","Regulation of lipid metabolism by PPARal
pha","Activation of NMDA receptors and postsynaptic events","PPARA activates gene expression","Post NMDA receptor activation events","Activation of AMPK downstream of NMDARs","DNA Repair","Cell Cycle"
,Disease,"Developmental Biology","Gene expression (Transcription)","Base Excision Repair",Mitotic,"Biological oxidations","Infectious disease","Nervous system development","RNA Polymerase II Transcrip
tion","Resolution of Abasic Sites (AP sites)","Mitotic G1 phase and G1/S transition","Phase I - Functionalization of compounds","Leishmania infection","M Phase","EGR2 and SOX10-mediated initiation of 
Schwann cell myelination","Sphingolipid metabolism","Generic Transcription Pathway","Resolution of AP sites via the multiple-nucleotide patch replacement pathway","G1/S Transition","Ethanol oxidation"
,"Leishmania parasite growth and survival","Mitotic Metaphase and Anaphase","Glycosphingolipid metabolism","Transcriptional Regulation by TP53","PCNA-Dependent Long Patch Base Excision Repair","Activa
tion of the pre-replicative complex","Anti-inflammatory response favouring Leishmania parasite infection","Mitotic Anaphase","Regulation of TP53 Activity","ADORA2B mediated anti-inflammatory cytokines
 production","Nuclear Envelope (NE) Reassembly","Regulation of TP53 Expression and Degradation","Initiation of Nuclear Envelope (NE) Reformation","Regulation of TP53 Degradation"}

> <broad_targets>
{UCK2}

> <broad_moa>
{}

> <synonyms>
{"1.beta.-D-Arabinofuranosylcytosine monohydrochloride","1.beta.DArabinofuranosylcytosine monohydrochloride",Cylocide,69-74-9,69749,"Cytosar hydrochloride",NSC63878,"Arabitin hydrochloride","Aracytin 
hydrochloride","Aracytidine hydrochloride","Cytosine, monohydrochloride","Arabinosylcytosine hydrochlor",63878,"NSC 63878
NSC 63878","Cytarabine hydrochloride"}

> <pdid>
PD001475

> <targets>
{}

> <classes>
{"Nucleoside Metabolic Inhibitor"}

> <pubchem_cids>
{92021801,5351180}

$$$$
NCI_AOD5_2014
  SciTegic11012412592D

 11 13  0  0  0  0            999 V2000
   -3.3392   -0.4276    0.0000 S   0  0
   -2.0404   -1.1781    0.0000 P   0  0
   -0.7500   -0.4330    0.0000 N   0  0
    0.7500   -0.4330    0.0000 C   0  0
    0.0000    0.8660    0.0000 C   0  0
   -2.0414   -2.6789    0.0000 N   0  0
   -1.2921   -3.8869    0.0000 C   0  0
   -2.7921   -3.8859    0.0000 C   0  0
   -2.0402    0.3227    0.0000 N   0  0
   -1.2900    1.5301    0.0000 C   0  0
   -2.7900    1.5303    0.0000 C   0  0
  1  2  2  0
  2  3  1  0
  3  4  1  0
  4  5  1  0
  5  3  1  0
  2  6  1  0
  6  7  1  0
  7  8  1  0
  8  6  1  0
  2  9  1  0
  9 10  1  0
 10 11  1  0
 11  9  1  0
M  END
> <name>
NCI_AOD5_2014

> <id>
2604

> <plate>
NCI_V5_A

> <well>
F03

> <supplier_cmpd_name>
Thiotepa

> <ctcr_id>
2806

> <supplier_cmpd_id>
6396

> <smiles>
S=[P](N1CC1)(N2CC2)N3CC3

> <pd_targets>
{HBB,HPGD,LMNA,CYP3A4,CYP2B6,CYP2B1}

> <pathway_gtopdb>
{"Secreted protein",Enzyme,"Other nuclear protein","Cytochrome P450","Cytochrome P450 family 3","Cytochrome P450 family 2","Cytochrome P450 family 3A","Cytochrome P450 family 2B","Cytochrome P450 3A4"
,"Cytochrome P450 2B6","Cytochrome P450 2B1"}

> <pathway_chembl>
{Enzymes,"Eicosanoid turnover","Cytochrome P450","Prostaglandin synthases","CYP3 family","CYP2 family: drug metabolising subset"}

> <pathway_reactome>
{"Immune System",Metabolism,"Cell Cycle","Innate Immune System","Metabolism of lipids",Mitotic,"Biological oxidations","Neutrophil degranulation","Biosynthesis of specialized proresolving mediators (S
PMs)","M Phase","Phase I - Functionalization of compounds","Biosynthesis of DHA-derived SPMs","Mitotic Metaphase and Anaphase","Cytochrome P450 - arranged by substrate type","Biosynthesis of D-series 
resolvins","Mitotic Anaphase","Biosynthesis of maresins",Xenobiotics,"Nuclear Envelope (NE) Reassembly","Biosynthesis of maresin-like SPMs","CYP2E1 reactions","Initiation of Nuclear Envelope (NE) Refo
rmation"}

> <broad_targets>
{CYP2B6,CYP3A4}

> <broad_moa>
{"cytochrome P450 inhibitor"}

> <synonyms>
{thiotepa,THIO-TEPA,THIOTEPA,52-24-4,52244,Triethylenethiophosphoramide,Thiophosphamide,Thioplex,Tiofosfamid,Tiofosyl,Thiofozil,Tespamin,Girostan,Oncotepa,Tespamine,Tiofozil,Stepa,Oncotiotepa,Thiotef,
Tifosyl,Oncothio-tepa,Oncothiotepa,TESPA,Tio-tef,Tiotef,Thio-Tep,ThioTep,Tri(aziridin-1-y,Tri(aziridin1y,T1250,6396,1503324,"NSC 6396",Thiotepa}

> <pdid>
PD000999

> <targets>
{Antibiotic,Bacterial,DNA Alkylator/Crosslinker}

> <classes>
{antineoplastic,alkylating agent,Alkylating agent,Anti-infection,Cell Cycle/DNA Damage}

> <pubchem_cids>
{5453}

$$$$
NCI_AOD5_2014
  SciTegic11012412592D

 20 19  0  0  1  0            999 V2000
    7.6943   -0.0061    0.0000 Cl  0  0
    1.2948   -3.7516    0.0000 N   0  0
    2.5951   -3.0039    0.0000 C   0  0  1  0  0  0
    2.5973   -1.5031    0.0000 C   0  0
    1.2990   -0.7500    0.0000 C   0  0
    1.2990    0.7500    0.0000 C   0  0
    0.0000    1.5000    0.0000 C   0  0
   -1.2990    0.7500    0.0000 C   0  0
   -1.2990   -0.7500    0.0000 C   0  0
    0.0000   -1.5000    0.0000 C   0  0
   -2.6003    1.4977    0.0000 N   0  0
   -3.8990    0.7455    0.0000 C   0  0
   -5.2003    1.4932    0.0000 C   0  0
   -6.4983    0.7413    0.0000 Cl  0  0
   -2.6061    2.9986    0.0000 C   0  0
   -3.9082    3.7448    0.0000 C   0  0
   -3.9139    5.2448    0.0000 Cl  0  0
    3.8933   -3.7570    0.0000 C   0  0
    5.1937   -3.0093    0.0000 O   0  0
    3.8912   -5.2570    0.0000 O   0  0
  3  2  1  1
  3  4  1  0
  4  5  1  0
  5  6  2  0
  6  7  1  0
  7  8  2  0
  8  9  1  0
  9 10  2  0
 10  5  1  0
  8 11  1  0
 11 12  1  0
 12 13  1  0
 13 14  1  0
 11 15  1  0
 15 16  1  0
 16 17  1  0
  3 18  1  0
 18 19  1  0
 18 20  2  0
M  END
> <name>
NCI_AOD5_2014

> <id>
2605

> <plate>
NCI_V5_A

> <well>
F04

> <supplier_cmpd_name>
Melphalan hydrochloride

> <ctcr_id>
2430

> <supplier_cmpd_id>
8806

> <smiles>
Cl.N[C@@H](Cc1ccc(cc1)N(CCCl)CCCl)C(O)=O

> <pd_targets>
{HIF1A,ALOX15,CYP3A4,ALDH1A1,ABCB11,SLC7A5,TGR,FFP,KDM4E,KMT2A,MEN1,LMNA,MAPT,PMP22}

> <pathway_gtopdb>
{"Transcription factor",Enzyme,Transporter,"Epigenetic regulator","Other nuclear protein","Other cytosolic protein","Unclassified protein",Oxidoreductase,"Cytochrome P450","Primary active transporter"
,"Electrochemical transporter",Transferase,Eraser,Reader,"Cytochrome P450 family 3","ATP-binding cassette","SLC superfamily of solute carriers","Lysine demethylase",Bromodomain,"Cytochrome P450 family
 3A","ABCB subfamily","SLC03 and SLC07 families of heteromeric amino acid transporters (HATs)","Jumonji domain-containing","Cytochrome P450 3A4","SLC07 Cationic amino acid transporter/glycoprotein-ass
ociated family"}

> <pathway_chembl>
{Enzymes,Transporters,"Eicosanoid turnover","Cytochrome P450","ATP-binding cassette transporter family","SLC superfamily of solute carriers","Chromatin modifying enzymes",Lipoxygenases,"CYP3 family","
ABCB subfamily","SLC3 and SLC7 families of heteromeric amino acid transporters (HATs)","1.14.11.- Histone demethylases","SLC7 family"}

> <pathway_reactome>
{"Cellular responses to external stimuli",Metabolism,"Transport of small molecules","Cell Cycle","Neuronal System","Developmental Biology","Cellular responses to stress","Metabolism of lipids","Biolog
ical oxidations","SLC-mediated transmembrane transport",Mitotic,"Transmission across Chemical Synapses","Nervous system development","Cellular response to hypoxia","Biosynthesis of specialized proreso
lving mediators (SPMs)","Phase I - Functionalization of compounds","Metabolism of steroids","Transport of inorganic cations/anions and amino acids/oligopeptides","M Phase","Neurotransmitter receptors 
and postsynaptic signal transmission","EGR2 and SOX10-mediated initiation of Schwann cell myelination","Oxygen-dependent proline hydroxylation of Hypoxia-inducible Factor Alpha","Biosynthesis of DPA-d
erived SPMs","Biosynthesis of DHA-derived SPMs","Ethanol oxidation","Bile acid and bile salt metabolism","Amino acid transport across the plasma membrane","Mitotic Metaphase and Anaphase","Activation 
of NMDA receptors and postsynaptic events","Biosynthesis of DPAn-3 SPMs","Biosynthesis of maresins","Synthesis of bile acids and bile salts","Mitotic Anaphase","Post NMDA receptor activation events","
Biosynthesis of DPAn-3-derived protectins and resolvins","Biosynthesis of maresin-like SPMs","Synthesis of bile acids and bile salts via 7alpha-hydroxycholesterol","Nuclear Envelope (NE) Reassembly","
Activation of AMPK downstream of NMDARs","Initiation of Nuclear Envelope (NE) Reformation"}

> <broad_targets>
{}

> <broad_moa>
{"DNA alkylating agent","DNA inhibitor"}

> <synonyms>
{"Melphalan hydrochloride","Melphalan HCl",3223-07-2,3223072,"CB 3025 hydrochloride","L-Sarcolysine hydrochloride","LSarcolysine hydrochloride",UNII-1VXP4V453T,UNII1VXP4V453T,1VXP4V453T,"Phenylalanine
 mustard hydrochloride","L-Phenylalanine mustard hydrochloride","LPhenylalanine mustard hydrochloride","148-82-3 (HCl)","148823 (HCl)",T1538,8806,"NSC 8806",Melphalan}

> <pdid>
PD001871

> <targets>
{}

> <classes>
{"Alkylating agent"}

> <pubchem_cids>
{9927978,24832839}

$$$$
NCI_AOD5_2014
  SciTegic11012412592D

 13 13  0  0  0  0            999 V2000
    5.5018   -3.1369    0.0000 C   0  0
    4.0102   -3.2959    0.0000 N   0  0
    3.4025   -4.6673    0.0000 C   0  0
    3.1255   -2.0835    0.0000 N   0  0
    1.6332   -2.2426    0.0000 N   0  0
    0.7500   -1.0323    0.0000 C   0  0
    1.2135    0.3943    0.0000 N   0  0
    0.0000    1.2760    0.0000 C   0  0
   -1.2135    0.3943    0.0000 N   0  0
   -0.7500   -1.0323    0.0000 C   0  0
   -1.6332   -2.2426    0.0000 C   0  0
   -1.0255   -3.6140    0.0000 N   0  0
   -3.1247   -2.0836    0.0000 O   0  0
  1  2  1  0
  2  3  1  0
  2  4  1  0
  4  5  2  3
  5  6  1  0
  6  7  1  0
  7  8  1  0
  8  9  2  0
  9 10  1  0
 10  6  2  0
 10 11  1  0
 11 12  1  0
 11 13  2  0
M  END
> <name>
NCI_AOD5_2014

> <id>
2606

> <plate>
NCI_V5_A

> <well>
F05

> <supplier_cmpd_name>
Dacarbazine

> <ctcr_id>
770

> <supplier_cmpd_id>
Dacarbazine

> <smiles>
CN(C)N=Nc1[nH]cnc1C(N)=O

> <pd_targets>
{TSHR,ALDH1A1,LMNA,KDM4E,MMP9,POLA2,PGD,AMPC,PAX8,TK1,G6PD,TMK,ADORA1,ADORA2A,TK}

> <pathway_gtopdb>
{"Membrane receptor",Enzyme,"Other nuclear protein","Epigenetic regulator","Unclassified protein","Family A G protein-coupled receptor",Oxidoreductase,Eraser,Protease,Hydrolase,Transferase,"Peptide re
ceptor (family A GPCR)","Lysine demethylase","Metallo protease","Small molecule receptor (family A GPCR)","Glycohormone receptor","Jumonji domain-containing","Metallo protease MAM clan","Nucleotide-li
ke receptor (family A GPCR)","Metallo protease M10A subfamily","Adenosine receptor"}

> <pathway_chembl>
{Receptors,Enzymes,"G protein-coupled receptors","Chromatin modifying enzymes","Peptidases and proteinases","Glycoprotein hormone receptors","1.14.11.- Histone demethylases","MA: Metallo (M) Peptidase
s","Adenosine receptors","M10: Matrix metallopeptidase"}

> <pathway_reactome>
{Disease,Metabolism,"Cell Cycle","Developmental Biology","Gene expression (Transcription)","Signal Transduction","Infectious disease","Biological oxidations",Mitotic,"Nervous system development","Meta
bolism of carbohydrates","RNA Polymerase II Transcription","Signaling by GPCR","Leishmania infection","Phase I - Functionalization of compounds","M Phase","Axon guidance","Mitotic G1 phase and G1/S tr
ansition","Pentose phosphate pathway","Generic Transcription Pathway","GPCR ligand binding","Leishmania parasite growth and survival","Ethanol oxidation","Mitotic Metaphase and Anaphase","EPH-Ephrin s
ignaling","G1/S Transition","Transcriptional Regulation by TP53","Class A/1 (Rhodopsin-like receptors)","Anti-inflammatory response favouring Leishmania parasite infection","Mitotic Anaphase","EPH-eph
rin mediated repulsion of cells","E2F mediated regulation of DNA replication","G1/S-Specific Transcription","TP53 Regulates Metabolic Genes","Nucleotide-like (purinergic) receptors","ADORA2B mediated 
anti-inflammatory cytokines production","Nuclear Envelope (NE) Reassembly","Inhibition of replication initiation of damaged DNA by RB1/E2F1","Adenosine P1 receptors","Initiation of Nuclear Envelope (N
E) Reformation"}

> <broad_targets>
.

> <broad_moa>
.

> <synonyms>
{dacarbazina,NCGC00091861-01,NCGC0009186101,dacarbazine,4342-03-4,4342034,CHEBI:4305,"1H-imidazole-4-carboxamide, 5-(3,3-dimethyl-1-triazenyl)-","1Himidazole4carboxamide, 5(3,3dimethyl1triazenyl)","da
carbazine (unspecified geometry)",4-(Dimethyltriazeno)imidazole-5-carboxamide,4(Dimethyltriazeno)imidazole5carboxamide,DSSTox_CID_369,DSSToxCID369,DSSTox-CID-369,"DSSTox CID 369",DSSTox_RID_75545,DSST
oxRID75545,DSSTox-RID-75545,"DSSTox RID 75545",Dacarbazi,45388,Dacarbazine,Prestw-574,"NSC 45388
NSC 45388"}

> <pdid>
PD002396

> <targets>
{}

> <classes>
{"Alkylating agent"}

> <pubchem_cids>
{2942}

$$$$
NCI_AOD5_2014
  SciTegic11012412592D

 19 19  0  0  0  0            999 V2000
    2.5909   -6.0056    0.0000 O   0  0
    3.8912   -5.2578    0.0000 C   0  0
    5.1887   -6.0105    0.0000 O   0  0
    3.8933   -3.7570    0.0000 C   0  0
    2.5951   -3.0039    0.0000 C   0  0
    2.5973   -1.5031    0.0000 C   0  0
    1.2990   -0.7500    0.0000 C   0  0
    1.2990    0.7500    0.0000 C   0  0
    0.0000    1.5000    0.0000 C   0  0
   -1.2990    0.7500    0.0000 C   0  0
   -1.2990   -0.7500    0.0000 C   0  0
    0.0000   -1.5000    0.0000 C   0  0
   -2.6003    1.4977    0.0000 N   0  0
   -3.8990    0.7455    0.0000 C   0  0
   -5.2003    1.4932    0.0000 C   0  0
   -6.4983    0.7413    0.0000 Cl  0  0
   -2.6061    2.9986    0.0000 C   0  0
   -3.9082    3.7448    0.0000 C   0  0
   -3.9139    5.2448    0.0000 Cl  0  0
  1  2  1  0
  2  3  2  0
  2  4  1  0
  4  5  1  0
  5  6  1  0
  6  7  1  0
  7  8  2  0
  8  9  1  0
  9 10  2  0
 10 11  1  0
 11 12  2  0
 12  7  1  0
 10 13  1  0
 13 14  1  0
 14 15  1  0
 15 16  1  0
 13 17  1  0
 17 18  1  0
 18 19  1  0
M  END
> <name>
NCI_AOD5_2014

> <id>
2607

> <plate>
NCI_V5_A

> <well>
F06

> <supplier_cmpd_name>
Chlorambucil

> <ctcr_id>
2305

> <supplier_cmpd_id>
3088

> <smiles>
OC(=O)CCCc1ccc(cc1)N(CCCl)CCCl

> <pd_targets>
{SLCO1B3,PMP22,HIF1A,TSHR,MAPT,CYP2D6,CHRM1,THPO,GMNN,NFKB1,LMNA,AKR1B1,TGR}

> <pathway_gtopdb>
{Transporter,"Unclassified protein","Transcription factor","Membrane receptor","Other cytosolic protein",Enzyme,"Other nuclear protein","Electrochemical transporter","Family A G protein-coupled recept
or","Cytochrome P450",Oxidoreductase,"SLC superfamily of solute carriers","Peptide receptor (family A GPCR)","Cytochrome P450 family 2","Small molecule receptor (family A GPCR)","SLC21/SLCO family of 
organic anion transporting polypeptides","Glycohormone receptor","Cytochrome P450 family 2D","Monoamine receptor","Cytochrome P450 2D6","Acetylcholine receptor"}

> <pathway_chembl>
{Transporters,Receptors,Enzymes,"SLC superfamily of solute carriers","G protein-coupled receptors","Cytochrome P450","1.-.-.- Oxidoreductases","SLCO family of organic anion transporting polypeptides",
"Glycoprotein hormone receptors","CYP2 family: drug metabolising subset","Acetylcholine receptors (muscarinic)"}

> <pathway_reactome>
{Metabolism,"Developmental Biology","Cellular responses to external stimuli",Disease,"Neuronal System","Signal Transduction",Hemostasis,"Cell Cycle","Immune System","Metabolism of lipids","Nervous sys
tem development","Cellular responses to stress","Infectious disease","Transmission across Chemical Synapses","Biological oxidations","Signaling by GPCR","Platelet activation","signaling and aggregatio
n",Mitotic,"Cytokine Signaling in Immune system","Metabolism of steroids","EGR2 and SOX10-mediated initiation of Schwann cell myelination","Cellular response to hypoxia","Leishmania infection","Neurot
ransmitter receptors and postsynaptic signal transmission","Phase I - Functionalization of compounds","GPCR ligand binding","Platelet Aggregation (Plug Formation)","Mitotic G1 phase and G1/S transitio
n","Signaling by Interleukins","M Phase","Bile acid and bile salt metabolism","Oxygen-dependent proline hydroxylation of Hypoxia-inducible Factor Alpha","Leishmania parasite growth and survival","Acti
vation of NMDA receptors and postsynaptic events","Cytochrome P450 - arranged by substrate type","Class A/1 (Rhodopsin-like receptors)","G1/S Transition","Interleukin-1 family signaling","Mitotic Meta
phase and Anaphase","Metabolism of steroid hormones","Recycling of bile acids and salts","Anti-inflammatory response favouring Leishmania parasite infection","Post NMDA receptor activation events",Xen
obiotics,"Amine ligand-binding receptors","Activation of the pre-replicative complex","Interleukin-1 signaling","Mitotic Anaphase","Pregnenolone biosynthesis","ADORA2B mediated anti-inflammatory cytok
ines production","Activation of AMPK downstream of NMDARs","CYP2E1 reactions","Muscarinic acetylcholine receptors","MAP3K8 (TPL2)-dependent MAPK1/3 activation","Nuclear Envelope (NE) Reassembly","Init
iation of Nuclear Envelope (NE) Reformation"}

> <broad_targets>
{}

> <broad_moa>
{"DNA inhibitor"}

> <synonyms>
{RESTW107,chlorambucil,305-03-3,305033,Ambochlorin,Chloroambucil,Leukeran,Chloraminophen,Chlorbutin,Chloraminophene,Chlorobutine,Amboclorin,Chlorbutine,Chlorobutin,Linfolizin,Linfolysin,Ecloril,Elcori
l,"Phenylbutyric acid nitrogen mustard",Chlocambucil,Lymphol,T0975,3088,C0253,SAM002564202,1500171,Prestw-1079,"NSC 3088",Chlorambucil,CPD000058372,CHLORAMBUCIL}

> <pdid>
PD002434

> <targets>
{}

> <classes>
{antineoplastic,"alkylating agent","Alkylating agent"}

> <pubchem_cids>
{2708}

$$$$
NCI_AOD5_2014
  SciTegic11012412592D

 28 31  0  0  1  0            999 V2000
   -1.8114   -5.1333    0.0000 C   0  0
   -2.2130   -3.6880    0.0000 C   0  0
   -3.6655   -3.3136    0.0000 O   0  0
   -1.1612   -2.6174    0.0000 O   0  0
    0.2851   -2.9666    0.0000 C   0  0  2  0  0  0
    1.7758   -3.1329    0.0000 C   0  0
    2.3947   -1.7666    0.0000 C   0  0
    1.2990   -0.7500    0.0000 C   0  0  1  0  0  0
    1.2990    0.7500    0.0000 C   0  0  2  0  0  0
    2.5981    1.5000    0.0000 C   0  0
    2.5981    3.0000    0.0000 C   0  0
    3.8971    3.7500    0.0000 C   0  0
    1.2990    3.7500    0.0000 C   0  0
    1.2990    5.2500    0.0000 C   0  0
    0.0000    6.0000    0.0000 C   0  0
   -0.0001    7.5000    0.0000 O   0  0
   -1.2991    5.2500    0.0000 C   0  0
   -1.2991    3.7500    0.0000 C   0  0
    0.0000    3.0000    0.0000 C   0  0  1  0  0  0
   -1.2991    2.2500    0.0000 C   0  0
    0.0000    1.5000    0.0000 C   0  0  1  0  0  0
   -1.2990    0.7500    0.0000 C   0  0
   -1.2990   -0.7500    0.0000 C   0  0
    0.0000   -1.5000    0.0000 C   0  0  2  0  0  0
   -0.8141   -2.0807    0.0000 C   0  0
    0.7499   -4.3804    0.0000 C   0  0
   -0.2673   -5.4828    0.0000 C   0  0
    2.2131   -4.7105    0.0000 O   0  0
  1  2  1  0
  2  3  2  0
  2  4  1  0
  5  4  1  1
  5  6  1  0
  6  7  1  0
  8  7  1  6
  8  9  1  0
  9 10  1  1
 10 11  2  3
 11 12  1  0
 11 13  1  0
 13 14  2  3
 14 15  1  0
 15 16  2  0
 15 17  1  0
 17 18  1  0
 18 19  1  0
 19 13  1  0
 19 20  1  6
 19 21  1  0
 21  9  1  0
 21 22  1  6
 22 23  1  0
 23 24  1  0
 24  5  1  0
 24  8  1  0
 24 25  1  6
  5 26  1  0
 26 27  1  0
 26 28  2  0
M  END
> <name>
NCI_AOD5_2014

> <id>
2608

> <plate>
NCI_V5_A

> <well>
F07

> <supplier_cmpd_name>
Megestrol acetate

> <ctcr_id>
5247

> <supplier_cmpd_id>
71423

> <smiles>
CC(=O)O[C@@]1(CC[C@H]2[C@@H]3C=C(C)C4=CC(=O)CC[C@]4(C)[C@H]3CC[C@]12C)C(C)=O

> <pd_targets>
{POLB,AR,HIF1A,NPSR1,PGR,LMNA,NR3C1,ABCB11,CYP2C9}

> <pathway_gtopdb>
{Enzyme,"Transcription factor","Membrane receptor","Other nuclear protein",Transporter,Protease,"Nuclear receptor","Family A G protein-coupled receptor","Primary active transporter","Cytochrome P450",
"Cysteine protease","Nuclear hormone receptor subfamily 3","Peptide receptor (family A GPCR)","ATP-binding cassette","Cytochrome P450 family 2","Cysteine protease CA clan","Nuclear hormone receptor su
bfamily 3 group C","Short peptide receptor (family A GPCR)","ABCB subfamily","Cytochrome P450 family 2C","Cysteine protease C1A family","Nuclear hormone receptor subfamily 3 group C member 4","Neurope
ptide receptor","Nuclear hormone receptor subfamily 3 group C member 3","Nuclear hormone receptor subfamily 3 group C member 1","Cytochrome P450 2C9"}

> <pathway_chembl>
{Receptors,Transporters,Enzymes,"Nuclear hormone receptors","G protein-coupled receptors","ATP-binding cassette transporter family","Cytochrome P450","Steroid hormone receptors","Neuropeptide S recept
or","ABCB subfamily","CYP2 family: drug metabolising subset","3C. 3-Ketosteroid receptors"}

> <pathway_reactome>
{"DNA Repair","Gene expression (Transcription)","Cellular responses to external stimuli",Disease,"Cell Cycle",Metabolism,"Metabolism of proteins","Base Excision Repair","RNA Polymerase II Transcriptio
n","Cellular responses to stress","Infectious disease",Mitotic,"Metabolism of lipids","Biological oxidations","Post-translational protein modification","Resolution of Abasic Sites (AP sites)","Generic
 Transcription Pathway","Cellular response to hypoxia","Leishmania infection","M Phase","Metabolism of steroids","Phase I - Functionalization of compounds",SUMOylation,"Resolution of AP sites via the 
multiple-nucleotide patch replacement pathway","Transcriptional regulation by RUNX2","Oxygen-dependent proline hydroxylation of Hypoxia-inducible Factor Alpha","Leishmania parasite growth and survival
","Mitotic Metaphase and Anaphase","FOXO-mediated transcription","Bile acid and bile salt metabolism","Cytochrome P450 - arranged by substrate type","SUMO E3 ligases SUMOylate target proteins","PCNA-D
ependent Long Patch Base Excision Repair","RUNX2 regulates bone development","Anti-inflammatory response favouring Leishmania parasite infection","Mitotic Anaphase","FOXO-mediated transcription of oxi
dative stress","metabolic and neuronal genes","Synthesis of bile acids and bile salts",Xenobiotics,"SUMOylation of intracellular receptors","RUNX2 regulates osteoblast differentiation","ADORA2B mediat
ed anti-inflammatory cytokines production","Nuclear Envelope (NE) Reassembly","Synthesis of bile acids and bile salts via 7alpha-hydroxycholesterol","CYP2E1 reactions","Initiation of Nuclear Envelope 
(NE) Reformation"}

> <broad_targets>
{NR3C1,PGR}

> <broad_moa>
{"progesterone receptor agonist"}

> <synonyms>
{"MEGESTROL ACETATE",595-33-5,595335,Megace,"Megace ES",Magestin,Niagestin,"Megestryl acetate",Megeron,Megestat,Ovaban,Ovarid,Maygace,Pallace,"BDH 1298","SC 10363",Megestrol-17-acetate,Megestrol17acet
ate,NSC-71423,NSC71423,Volidan,SC10363,UNII-TJ2M0FR8ES,UNIITJ2M0FR8ES,17alpha-Hydroxy-6-methylpregn,17alphaHydroxy6methylpregn,T1284,71423,S1304,SAM001246722,Prestw-956,"NSC 71423","Megestrol acetate"
,"Megestrol Acetate",CPD000058691}

> <pdid>
PD001872

> <targets>
{"Androgen Receptor"}

> <classes>
{"synthetic progestin","Endocrinology & Hormones"}

> <pubchem_cids>
{11683}

$$$$
NCI_AOD5_2014
  SciTegic11012412592D

 15 18  0  0  0  0            999 V2000
    3.2676   -2.7548    0.0000 C   0  0
    4.0197   -1.4569    0.0000 C   0  0
    2.5987   -1.5004    0.0000 N   0  0
    1.2990   -0.7500    0.0000 C   0  0
    1.2990    0.7500    0.0000 N   0  0
    0.0000    1.5000    0.0000 C   0  0
   -1.2990    0.7500    0.0000 N   0  0
   -1.2990   -0.7500    0.0000 C   0  0
    0.0000   -1.5000    0.0000 N   0  0
   -2.5987   -1.5004    0.0000 N   0  0
   -4.0196   -1.4569    0.0000 C   0  0
   -3.2676   -2.7548    0.0000 C   0  0
    0.0000    3.0008    0.0000 N   0  0
    0.7481    4.2096    0.0000 C   0  0
   -0.7519    4.2072    0.0000 C   0  0
  1  2  1  0
  2  3  1  0
  3  1  1  0
  3  4  1  0
  4  5  2  0
  5  6  1  0
  6  7  2  0
  7  8  1  0
  8  9  2  0
  9  4  1  0
  8 10  1  0
 10 11  1  0
 11 12  1  0
 12 10  1  0
  6 13  1  0
 13 14  1  0
 14 15  1  0
 15 13  1  0
M  END
> <name>
NCI_AOD5_2014

> <id>
2609

> <plate>
NCI_V5_A

> <well>
F08

> <supplier_cmpd_name>
Triethylenemelamine

> <ctcr_id>
6636

> <supplier_cmpd_id>
9706

> <smiles>
C1CN1c2nc(nc(n2)N3CC3)N4CC4

> <pd_targets>
.

> <pathway_gtopdb>
.

> <pathway_chembl>
.

> <pathway_reactome>
.

> <broad_targets>
.

> <broad_moa>
.

> <synonyms>
{Triethylenemelamine,Tretamine,Trisaziridinyltriazine,51-18-3,51183,Tretamin,Triamelin,Triethanomelamine,Persistol,"Triaziridinyl triazine",Tem-Simes,TemSimes,"TEM (cytostatic)","2,4,6-Tris(1-aziridin
yl)-s-triazine","2,4,6Tris(1aziridinyl)striazine","Melamine, triethylene-","Melamine, triethylene","Persistol Ho 1/193",9706,NSC9706,"NSC 9706"}

> <pdid>
PD004077

> <targets>
{}

> <classes>
{"Alkylating agent"}

> <pubchem_cids>
{5799}

$$$$
NCI_AOD5_2014
  SciTegic11012412592D

 17 18  0  0  0  0            999 V2000
    3.9200   -5.8774    0.0000 O   0  0
    4.8054   -4.6666    0.0000 C   0  0
    4.2010   -3.2956    0.0000 C   0  0
    2.7343   -2.9815    0.0000 O   0  0
    2.5987   -1.5004    0.0000 C   0  0
    3.9511   -0.8815    0.0000 C   0  0
    4.2566    0.5871    0.0000 O   0  0
    4.9531   -1.9978    0.0000 C   0  0
    6.4451   -1.8434    0.0000 O   0  0
    1.2990   -0.7500    0.0000 N   0  0
    1.2990    0.7500    0.0000 C   0  0
    0.0000    1.5000    0.0000 N   0  0
   -1.2990    0.7500    0.0000 C   0  0
   -2.5981    1.5000    0.0000 N   0  0
   -1.2990   -0.7500    0.0000 N   0  0
    0.0000   -1.5000    0.0000 C   0  0
    0.0000   -3.0000    0.0000 O   0  0
  1  2  1  0
  2  3  1  0
  3  4  1  0
  4  5  1  0
  5  6  1  0
  6  7  1  0
  6  8  1  0
  8  3  1  0
  8  9  1  0
  5 10  1  0
 10 11  1  0
 11 12  2  3
 12 13  1  0
 13 14  2  0
 13 15  1  0
 15 16  1  0
 16 10  1  0
 16 17  2  0
M  END
> <name>
NCI_AOD5_2014

> <id>
2610

> <plate>
NCI_V5_A

> <well>
F09

> <supplier_cmpd_name>
Azacitidine

> <ctcr_id>
2327

> <supplier_cmpd_id>
102816

> <smiles>
OCC1OC(C(O)C1O)N2C=NC(=N)NC2=O

> <pd_targets>
.

> <pathway_gtopdb>
.

> <pathway_chembl>
.

> <pathway_reactome>
.

> <broad_targets>
.

> <broad_moa>
.

> <synonyms>
{"Azacytidine, 5-","Azacytidine, 5",5-AZCR,5AZCR,"5 AZC",5-AC,5AC,Azacitidine;5-AzaC;Ladakamycin,Azacitidine;5AzaC;Ladakamycin,NCI-C01569,NCIC01569,"CCRIS93; NSC 281272; Kymarabine","s-Triazin-2(1H)-o
ne, 4-amino-1-.beta.-D-ribofuranosyl-","sTriazin2(1H)one, 4amino1.beta.Dribofuranosyl","1,3,5-Triazin-2(1H)-one, 4-amino-1-.beta.-D-ribofuranosyl-","1,3,5Triazin2(1H)one, 4amino1.beta.Dribofuranosyl",
"Antibiotic U",102816,NSC102816,"NSC 102816",Azacitidine}

> <pdid>

> <targets>
{}

> <classes>
{"inhibitor of DNA methylation","cytidine antimetabolite"}

> <pubchem_cids>
{1805}

$$$$
NCI_AOD5_2014
  SciTegic11012412592D

 15 15  0  0  0  0            999 V2000
    2.5951   -3.0031    0.0000 C   0  0
    2.5973   -1.5031    0.0000 N   0  0
    3.8976   -0.7553    0.0000 C   0  0
    1.2990   -0.7500    0.0000 C   0  0
    1.2990    0.7500    0.0000 N   0  0
    0.0000    1.5000    0.0000 C   0  0
   -1.2990    0.7500    0.0000 N   0  0
   -1.2990   -0.7500    0.0000 C   0  0
    0.0000   -1.5000    0.0000 N   0  0
   -2.5972   -1.5031    0.0000 N   0  0
   -2.5951   -3.0031    0.0000 C   0  0
   -3.8976   -0.7554    0.0000 C   0  0
   -0.0031    3.0008    0.0000 N   0  0
   -1.3032    3.7490    0.0000 C   0  0
    1.2946    3.7531    0.0000 C   0  0
  1  2  1  0
  2  3  1  0
  2  4  1  0
  4  5  2  0
  5  6  1  0
  6  7  2  0
  7  8  1  0
  8  9  2  0
  9  4  1  0
  8 10  1  0
 10 11  1  0
 10 12  1  0
  6 13  1  0
 13 14  1  0
 13 15  1  0
M  END
> <name>
NCI_AOD5_2014

> <id>
2611

> <plate>
NCI_V5_A

> <well>
F10

> <supplier_cmpd_name>
Altretamine

> <ctcr_id>
2557

> <supplier_cmpd_id>
13875

> <smiles>
CN(C)c1nc(nc(n1)N(C)C)N(C)C

> <pd_targets>
{THRB,CHRM1,CYP1A2,NS1,LMNA,CREBBP,HSD17B10}

> <pathway_gtopdb>
{"Transcription factor","Membrane receptor",Enzyme,"Unclassified protein","Other nuclear protein","Epigenetic regulator","Nuclear receptor","Family A G protein-coupled receptor","Cytochrome P450",Writ
er,Oxidoreductase,"Nuclear hormone receptor subfamily 1","Small molecule receptor (family A GPCR)","Cytochrome P450 family 1","Histone acetyltransferase","Nuclear hormone receptor subfamily 1 group A"
,"Monoamine receptor","Cytochrome P450 family 1A","p300/CBP family","Nuclear hormone receptor subfamily 1 group A member 2","Acetylcholine receptor","Cytochrome P450 1A1"}

> <pathway_chembl>
{Receptors,Enzymes,"Other protein targets","Nuclear hormone receptors","G protein-coupled receptors","Cytochrome P450","Bromodomain-containing proteins","1A. Thyroid hormone receptors","Acetylcholine 
receptors (muscarinic)","CYP1 family","Non-enzymatic BRD containing proteins"}

> <pathway_reactome>
{"Metabolism of proteins","Signal Transduction",Metabolism,"Cell Cycle","Gene expression (Transcription)","Post-translational protein modification","Signaling by GPCR","Biological oxidations",Mitotic,
"RNA Polymerase II Transcription","Metabolism of amino acids and derivatives",SUMOylation,"GPCR ligand binding","Phase I - Functionalization of compounds","M Phase","Generic Transcription Pathway","Br
anched-chain amino acid catabolism","SUMO E3 ligases SUMOylate target proteins","Class A/1 (Rhodopsin-like receptors)","Cytochrome P450 - arranged by substrate type","Mitotic Metaphase and Anaphase","
Transcriptional Regulation by TP53","SUMOylation of intracellular receptors","Amine ligand-binding receptors",Xenobiotics,"Mitotic Anaphase","TP53 Regulates Transcription of Cell Death Genes","Muscari
nic acetylcholine receptors","Aromatic amines can be N-hydroxylated or N-dealkylated by CYP1A2","Nuclear Envelope (NE) Reassembly","TP53 Regulates Transcription of Genes Involved in Cytochrome C Relea
se","Initiation of Nuclear Envelope (NE) Reformation"}

> <broad_targets>
{}

> <broad_moa>
{"DNA synthesis inhibitor"}

> <synonyms>
{"Altretamine (USP/INN)",altretamine,645-05-6,645056,HEXAMETHYLMELAMINE,Hexalen,Hexastat,Hemel,"2,4,6-Tris(dimethylamino)-1,3,5-triazine","2,4,6Tris(dimethylamino)1,3,5triazine","Melamine, hexamethyl-
","Melamine, hexamethyl",Altretaminum,Altretamina,"Altretaminum (INN-Latin)","Altretaminum (INNLatin)",N2,N4,N6,N6-hexamethyl-1,N6hexamethyl1,3,5-t,5t,T1241,13875,SAM002564241,1503065,Prestw-946,"NSC 
13875",Altretamine,CPD000058181,ALTRETAMINE}

> <pdid>
PD001093

> <targets>
{DNA Alkylator/Crosslinker}

> <classes>
{antineoplastic,Alkylating agent,Cell Cycle/DNA Damage}

> <pubchem_cids>
{2123}

$$$$
NCI_AOD5_2014
  SciTegic11012412592D

 10  8  0  0  0  0            999 V2000
   10.2999    0.3750    0.0000 Cl  0  0
    0.0007    0.0004    0.0000 N   0  0
    1.3000    0.7500    0.0000 C   0  0
    2.6000    0.0000    0.0000 C   0  0
    2.6000   -1.5000    0.0000 O   0  0
    3.9000    0.7500    0.0000 C   0  0
    5.2000    0.0000    0.0000 C   0  0
    6.5000    0.7500    0.0000 C   0  0
    6.5000    2.2500    0.0000 O   0  0
    7.7992    0.0004    0.0000 O   0  0
  2  3  1  0
  3  4  1  0
  4  5  2  0
  4  6  1  0
  6  7  1  0
  7  8  1  0
  8  9  1  0
  8 10  2  0
M  END
> <name>
NCI_AOD5_2014

> <id>
2612

> <plate>
NCI_V5_A

> <well>
F11

> <supplier_cmpd_name>
Aminolevulinic acid hydrochloride

> <ctcr_id>
4887

> <supplier_cmpd_id>
18509

> <smiles>
Cl.NCC(=O)CCC(O)=O

> <pd_targets>
.

> <pathway_gtopdb>
.

> <pathway_chembl>
.

> <pathway_reactome>
.

> <broad_targets>
{ALAD}

> <broad_moa>
{"oxidizing agent"}

> <synonyms>
{AKOS026750168,FT-0601317,FT0601317,5-ALA,5ALA,"5-Aminolaevulinic acid hydrochloride","5Aminolaevulinic acid hydrochloride","5-Aminolevulinic acid hydrochloride","5Aminolevulinic acid hydrochloride",5
451-09-2,5451092,"Aminolevulinic acid hydrochloride","5-Amino-4-oxopentanoic acid hydrochloride","5Amino4oxopentanoic acid hydrochloride",Levulan,"Levulan Kerastick",5-Aminolevulinic,5Aminolevulinic,T
1662,18509,1504184,"NSC 18509","ALA hydrochloride","AMINOLEVULINIC ACID HYDROCHLORIDE"}

> <pdid>
PD003147

> <targets>
{}

> <classes>
{antineoplastic,"Photosensitizing Agents"}

> <pubchem_cids>
{71773380,9815326,123608}

$$$$
NCI_AOD5_2014
  SciTegic11012412592D

 16 18  0  0  0  0            999 V2000
    2.5951   -3.0031    0.0000 C   0  0
    2.5973   -1.5031    0.0000 O   0  0
    1.2990   -0.7500    0.0000 C   0  0
    1.2990    0.7500    0.0000 C   0  0
    2.4133    1.7530    0.0000 O   0  0
    1.8032    3.1233    0.0000 C   0  0
    0.3114    2.9665    0.0000 C   0  0
    0.0000    1.5000    0.0000 C   0  0
   -1.2990    0.7500    0.0000 C   0  0
   -1.2990   -0.7500    0.0000 C   0  0
   -2.5981   -1.5000    0.0000 C   0  0
   -2.5981   -3.0000    0.0000 C   0  0
   -1.2990   -3.7500    0.0000 C   0  0
   -1.2990   -5.2500    0.0000 O   0  0
    0.0000   -3.0000    0.0000 O   0  0
    0.0000   -1.5000    0.0000 C   0  0
  1  2  1  0
  2  3  1  0
  3  4  2  0
  4  5  1  0
  5  6  1  0
  6  7  2  0
  7  8  1  0
  8  4  1  0
  8  9  2  0
  9 10  1  0
 10 11  1  0
 11 12  2  3
 12 13  1  0
 13 14  2  0
 13 15  1  0
 15 16  1  0
 16  3  1  0
 16 10  2  0
M  END
> <name>
NCI_AOD5_2014

> <id>
2613

> <plate>
NCI_V5_A

> <well>
G02

> <supplier_cmpd_name>
Methoxsalen

> <ctcr_id>
1812

> <supplier_cmpd_id>
45923

> <smiles>
COc1c2occc2cc3C=CC(=O)Oc13

> <pd_targets>
{CYP3A4,CYP2A13,MAOA,CYP2A6,ACHE,TSHR,CYP2C19,MAPK1,CYP2D6,LEF,CYP1A2}

> <pathway_gtopdb>
{Enzyme,"Membrane receptor","Cytochrome P450",Oxidoreductase,Hydrolase,"Family A G protein-coupled receptor",Kinase,Protease,"Cytochrome P450 family 3","Cytochrome P450 family 2","Peptide receptor (fa
mily A GPCR)","Protein Kinase","Metallo protease","Cytochrome P450 family 1","Cytochrome P450 family 3A","Cytochrome P450 family 2A","Glycohormone receptor","Cytochrome P450 family 2C","CMGC protein k
inase group","Cytochrome P450 family 2D","Metallo protease MAE clan","Cytochrome P450 family 1A","Cytochrome P450 3A4","Cytochrome P450 2A6","Cytochrome P450 2C19","CMGC protein kinase MAPK family","C
ytochrome P450 2D6","Metallo protease M34 family","Cytochrome P450 1A1","CMGC protein kinase ERK1"}

> <pathway_chembl>
{Enzymes,Receptors,"Cytochrome P450","Catecholamine turnover","Acetylcholine turnover","G protein-coupled receptors","Kinases (EC 2.7.x.x)","CYP3 family","CYP2 family: drug metabolising subset","Glyco
protein hormone receptors","CMGC: Containing CDK",MAPK,GSK3,"CLK families","CYP1 family","Mitogen-activated protein kinases (MAP kinases)","ERK subfamily"}

> <pathway_reactome>
{Metabolism,Disease,"Immune System","Metabolism of lipids","Biological oxidations","Infectious disease","Innate Immune System","Biosynthesis of specialized proresolving mediators (SPMs)","Phase I - Fu
nctionalization of compounds","Phospholipid metabolism","Leishmania infection","Toll-like Receptor Cascades","Uptake and actions of bacterial toxins","Biosynthesis of DHA-derived SPMs","Cytochrome P45
0 - arranged by substrate type","Amine Oxidase reactions","Glycerophospholipid biosynthesis","Leishmania parasite growth and survival","Toll Like Receptor 5 (TLR5) Cascade","Uptake and function of ant
hrax toxins","Biosynthesis of maresins",Xenobiotics,"Biogenic amines are oxidatively deaminated to aldehydes by MAOA and MAOB","Synthesis of PC","Anti-inflammatory response favouring Leishmania parasi
te infection","MyD88 cascade initiated on plasma membrane","Biosynthesis of maresin-like SPMs","CYP2E1 reactions","ADORA2B mediated anti-inflammatory cytokines production","MAP kinase activation","Aro
matic amines can be N-hydroxylated or N-dealkylated by CYP1A2","MAPK targets/ Nuclear events mediated by MAP kinases","ERK/MAPK targets","ERKs are inactivated"}

> <broad_targets>
{CYP1A1,CYP1A2,CYP2A13,CYP2A6,CYP3A4}

> <broad_moa>
{"DNA synthesis inhibitor"}

> <synonyms>
{8MO,methoxsalen,8-Methoxypsoralen,8Methoxypsoralen,298-81-7,298817,XANTHOTOXIN,Ammoidin,Meladinine,Xanthotoxine,8-MOP,8MOP,Meloxine,Oxsoralen,"9-Methoxy-7H-furo(3,2-g)chromen-7-one","9Methoxy7Hfuro(3
,2g)chromen7one",Meladinin,Oxypsoralen,Puvalen,Meladoxen,Ammodin,Uvadex,Methoxa-Dome,MethoxaDome,8-Methoxypsoralene,8Methoxypsoralene,Ox,T1548,45923,NSC45923,SAM002548974,1500400,"NSC 45923
NSC 45923",Methoxsalen,CPD000071170,METHOXSALEN}

> <pdid>
PD001860

> <targets>
{Cytochrome P450}

> <classes>
{DNA photoadsorption,pigmentation agent,antipsoriatic,Metabolic Enzyme/Protease}

> <pubchem_cids>
{4114}

$$$$
NCI_AOD5_2014
  SciTegic11012412592D

 17 16  0  0  0  0            999 V2000
    6.3933   -1.1297    0.0000 Cl  0  0
    3.8912   -5.2570    0.0000 C   0  0
    3.8933   -3.7570    0.0000 N   0  0
    2.5951   -3.0039    0.0000 N   0  0
    2.5973   -1.5031    0.0000 C   0  0
    1.2990   -0.7500    0.0000 C   0  0
    1.2990    0.7500    0.0000 C   0  0
    0.0000    1.5000    0.0000 C   0  0
   -1.2990    0.7500    0.0000 C   0  0
   -1.2990   -0.7500    0.0000 C   0  0
    0.0000   -1.5000    0.0000 C   0  0
   -2.6003    1.4977    0.0000 C   0  0
   -2.6030    2.9977    0.0000 O   0  0
   -3.8990    0.7455    0.0000 N   0  0
   -5.2003    1.4932    0.0000 C   0  0
   -6.4983    0.7413    0.0000 C   0  0
   -5.2029    2.9932    0.0000 C   0  0
  2  3  1  0
  3  4  1  0
  4  5  1  0
  5  6  1  0
  6  7  2  0
  7  8  1  0
  8  9  2  0
  9 10  1  0
 10 11  2  0
 11  6  1  0
  9 12  1  0
 12 13  2  0
 12 14  1  0
 14 15  1  0
 15 16  1  0
 15 17  1  0
M  END
> <name>
NCI_AOD5_2014

> <id>
2614

> <plate>
NCI_V5_A

> <well>
G03

> <supplier_cmpd_name>
Procarbazine hydrochloride

> <ctcr_id>
6590

> <supplier_cmpd_id>
77213

> <smiles>
Cl.CNNCc1ccc(cc1)C(=O)NC(C)C

> <pd_targets>
{ALDH1A1,ALOX15,CYP1A2,CYP2C19,LMNA,MAOA,MAOB}

> <pathway_gtopdb>
{Enzyme,"Other nuclear protein",Oxidoreductase,"Cytochrome P450","Cytochrome P450 family 1","Cytochrome P450 family 2","Cytochrome P450 family 1A","Cytochrome P450 family 2C","Cytochrome P450 1A1","Cy
tochrome P450 2C19"}

> <pathway_chembl>
{Enzymes,"Eicosanoid turnover","Cytochrome P450",Lipoxygenases,"CYP1 family","CYP2 family: drug metabolising subset"}

> <pathway_reactome>
{Metabolism,"Cell Cycle","Biological oxidations","Metabolism of lipids",Mitotic,"Phase I - Functionalization of compounds","Biosynthesis of specialized proresolving mediators (SPMs)","M Phase","Ethano
l oxidation","Biosynthesis of DPA-derived SPMs","Cytochrome P450 - arranged by substrate type","Mitotic Metaphase and Anaphase","Biosynthesis of DPAn-3 SPMs",Xenobiotics,"Mitotic Anaphase","Biosynthes
is of DPAn-3-derived protectins and resolvins","Aromatic amines can be N-hydroxylated or N-dealkylated by CYP1A2","CYP2E1 reactions","Nuclear Envelope (NE) Reassembly","Initiation of Nuclear Envelope 
(NE) Reformation"}

> <broad_targets>
{}

> <broad_moa>
{"monoamine oxidase inhibitor"}

> <synonyms>
{RESTW111,"Procarbazine hydrochloride",366-70-1,366701,"PROCARBAZINE HCl",Matulane,Nathulane,Natunalar,"MIH hydrochloride","PCB hydrochloride","Procarbazine (Hydrochloride)","Ibenzmethyzine hydrochlor
ide",Natulan,NSC-77213,NSC77213,UNII-XH0NPH5ZX8,UNIIXH0NPH5ZX8,NCI-C01810,NCIC01810,N-isoprop,Nisoprop,T1488,77213,S1995,SAM001246564,Prestw-1112,"NSC 77213","Procarbazine HCl",CPD000469151}

> <pdid>
PD001685

> <targets>
{}

> <classes>
{"Alkylating agent"}

> <pubchem_cids>
{9703,441273,74764326}

$$$$
NCI_AOD5_2014
  SciTegic11012412592D

 64 71  0  0  1  0            999 V2000
    2.3980    5.1974    0.0000 C   0  0
    1.0617    4.5159    0.0000 C   0  0
   -0.2000    5.2900    0.0000 C   0  0  2  0  0  0
   -0.2341    6.7896    0.0000 O   0  0
   -0.2000    4.0900    0.0000 C   0  0
   -1.2300    3.5100    0.0000 C   0  0  1  0  0  0
   -2.2500    4.0900    0.0000 C   0  0
   -2.2500    5.2900    0.0000 N   0  3
   -3.9200    5.5000    0.0000 C   0  0
   -5.4100    4.7800    0.0000 C   0  0
   -5.7000    3.1300    0.0000 C   0  0
   -4.9700    1.7900    0.0000 C   0  0
   -6.0100    0.6800    0.0000 N   0  0
   -7.4000    1.3200    0.0000 C   0  0
   -8.8100    0.7400    0.0000 C   0  0
  -10.0200    1.6700    0.0000 C   0  0
   -9.8300    3.1800    0.0000 C   0  0
   -8.4200    3.7700    0.0000 C   0  0
   -7.2000    2.8400    0.0000 C   0  0
   -3.3800    1.2800    0.0000 C   0  0  1  0  0  0
   -1.8700    1.9700    0.0000 C   0  0
   -4.3011    0.1350    0.0000 C   0  0
   -5.7734    0.4218    0.0000 O   0  0
   -3.8135   -1.2844    0.0000 O   0  0
   -4.7977   -2.4164    0.0000 C   0  0
   -2.3301    0.2513    0.0000 C   0  0
   -2.7110   -1.1720    0.0000 C   0  0
   -1.6165   -2.2180    0.0000 C   0  0
   -0.2693   -1.8150    0.0000 C   0  0
    0.1414   -0.3694    0.0000 C   0  0
   -0.9061    0.6597    0.0000 C   0  0
   -0.5303    2.1129    0.0000 O   0  0
    0.4332    2.3808    0.0000 C   0  0
    0.6269   -3.0200    0.0000 N   0  0
    2.1267   -3.0420    0.0000 C   0  0
   -0.2779   -4.1651    0.0000 C   0  0  1  0  0  0
   -0.0140   -5.6041    0.0000 C   0  0  2  0  0  0
    1.0936   -4.5926    0.0000 O   0  0
   -1.1529   -6.6124    0.0000 C   0  0  2  0  0  0
   -0.8799   -8.0880    0.0000 O   0  0
    0.5342   -8.5906    0.0000 C   0  0
    1.2952   -7.9418    0.0000 C   0  0
    0.8068  -10.0656    0.0000 O   0  0
   -2.5335   -6.1188    0.0000 C   0  0  2  0  0  0
   -2.2630   -7.5946    0.0000 C   0  0
   -3.0242   -8.2431    0.0000 C   0  0
   -3.6287   -7.0542    0.0000 C   0  0
   -5.0406   -6.5494    0.0000 C   0  0
   -5.3459   -4.5824    0.0000 C   0  0
   -4.0445   -3.8623    0.0000 N   0  3
   -3.7291   -2.4358    0.0000 C   0  0
   -2.2452   -2.2939    0.0000 C   0  0
   -1.6741   -3.6659    0.0000 C   0  0  2  0  0  0
   -2.8019   -4.6427    0.0000 C   0  0  2  0  0  0
    0.2302   -7.0636    0.0000 C   0  0
    1.1755   -7.3898    0.0000 O   0  0
   -0.9029   -8.0479    0.0000 O   0  0
   -0.6181   -9.5206    0.0000 C   0  0
   -1.2300    5.8900    0.0000 C   0  0
    8.2352    0.9101    0.0000 O   0  5
    8.2352   -0.5899    0.0000 S   0  0
    8.2352   -2.0899    0.0000 O   0  5
    6.9359   -1.3395    0.0000 O   0  0
    9.5344   -1.3395    0.0000 O   0  0
  1  2  1  0
  2  3  1  0
  3  4  1  1
  3  5  1  0
  6  5  1  6
  6  7  1  0
  7  8  1  0
  8  9  1  0
  9 10  1  0
 10 11  1  0
 11 12  2  0
 12 13  1  0
 13 14  1  0
 14 15  2  0
 15 16  1  0
 16 17  2  0
 17 18  1  0
 18 19  2  0
 19 11  1  0
 19 14  1  0
 12 20  1  0
 20 21  1  0
 21  6  1  0
 20 22  1  1
 22 23  2  0
 22 24  1  0
 24 25  1  0
 20 26  1  0
 26 27  2  0
 27 28  1  0
 28 29  2  0
 29 30  1  0
 30 31  2  0
 31 26  1  0
 31 32  1  0
 32 33  1  0
 29 34  1  0
 34 35  1  0
 36 34  1  1
 36 37  1  0
 37 38  1  6
 37 39  1  0
 39 40  1  6
 40 41  1  0
 41 42  1  0
 41 43  2  0
 39 44  1  0
 44 45  1  1
 45 46  1  0
 44 47  1  0
 47 48  2  3
 48 49  1  0
 49 50  1  0
 50 51  1  0
 51 52  1  0
 53 52  1  6
 53 28  1  0
 53 36  1  0
 53 54  1  0
 54 44  1  0
 54 50  1  6
 37 55  1  0
 55 56  2  0
 55 57  1  0
 57 58  1  0
  8 59  1  0
 59  3  1  0
 60 61  1  0
 61 62  1  0
 61 63  2  0
 61 64  2  0
M  CHG  4   8   1  50   1  60  -1  62  -1
M  END
> <name>
NCI_AOD5_2014

> <id>
2615

> <plate>
NCI_V5_A

> <well>
G04

> <supplier_cmpd_name>
Vinblastine sulfate

> <ctcr_id>
136

> <supplier_cmpd_id>
49842

> <smiles>
CC[C@]1(O)C[C@H]2C[NH+](CCc3c([nH]c4ccccc34)[C@@](C2)(C(=O)OC)c5cc6c(cc5OC)N(C)[C@H]7[C@](O)([C@H](OC(C)=O)[C@]8(CC)C=CC[NH+]9CC[C@]67[C@H]89)C(=O)OC)C1.[O-][S]([O-])(=O)=O

> <pd_targets>
.

> <pathway_gtopdb>
.

> <pathway_chembl>
.

> <pathway_reactome>
.

> <broad_targets>
.

> <broad_moa>
.

> <synonyms>
{"Vinblastine sulfate",143-67-9,143679,"Vincaleukoblastine sulfate","VLB monosulfate","Vinblastine 5","Vinblastine sulphate","Velban (TN)","Exal (TN)","Vincaleukoblastine sulfate (1:1) (salt)","Belvan
, VLB","NSC 49842",CHEBI:9984,"Vincaleucoblastine sulf",49842,NSC49842,"NSC 49842
NSC 49842","LE 135"}

> <pdid>

> <targets>
{RAR}

> <classes>
{"Microtubule inhibitor"}

> <pubchem_cids>
{241902,44663491}

$$$$
NCI_AOD5_2014
  SciTegic11012412592D

 18 20  0  0  0  0            999 V2000
   -1.2250   -6.6252    0.0000 C   0  0
   -0.2234   -5.5086    0.0000 C   0  0
    1.2443   -5.8182    0.0000 C   0  0
   -0.6890   -4.0818    0.0000 C   0  0
    0.3114   -2.9665    0.0000 N   0  0
    1.8032   -3.1233    0.0000 C   0  0
    2.4133   -1.7530    0.0000 N   0  0
    1.2990   -0.7500    0.0000 C   0  0
    1.2990    0.7500    0.0000 C   0  0
    2.5981    1.5000    0.0000 N   0  0
    0.0000    1.5000    0.0000 N   0  0
   -1.2990    0.7500    0.0000 C   0  0
   -2.5981    1.5000    0.0000 C   0  0
   -3.8971    0.7500    0.0000 C   0  0
   -3.8971   -0.7500    0.0000 C   0  0
   -2.5981   -1.5000    0.0000 C   0  0
   -1.2990   -0.7500    0.0000 C   0  0
    0.0000   -1.5000    0.0000 C   0  0
  1  2  1  0
  2  3  1  0
  2  4  1  0
  4  5  1  0
  5  6  1  0
  6  7  2  0
  7  8  1  0
  8  9  2  0
  9 10  1  0
  9 11  1  0
 11 12  2  0
 12 13  1  0
 13 14  2  0
 14 15  1  0
 15 16  2  0
 16 17  1  0
 17 12  1  0
 17 18  2  0
 18  5  1  0
 18  8  1  0
M  END
> <name>
NCI_AOD5_2014

> <id>
2616

> <plate>
NCI_V5_A

> <well>
G05

> <supplier_cmpd_name>
Imiquimod

> <ctcr_id>
6391

> <supplier_cmpd_id>
369100

> <smiles>
CC(C)Cn1cnc2c(N)nc3ccccc3c12

> <pd_targets>
{TLR7,LMNA,HRH2,ADORA2A,ADRA1D,TLR8}

> <pathway_gtopdb>
{"Membrane receptor","Other nuclear protein","Toll-like and Il-1 receptors","Family A G protein-coupled receptor","Small molecule receptor (family A GPCR)","Monoamine receptor","Nucleotide-like recept
or (family A GPCR)","Histamine receptor","Adenosine receptor","Adrenergic receptor"}

> <pathway_chembl>
{Receptors,"Catalytic receptors","G protein-coupled receptors","Pattern recognition receptors","Histamine receptors","Adenosine receptors",Adrenoceptors,"Toll-like receptor family"}

> <pathway_reactome>
{"Immune System","Cell Cycle",Disease,"Signal Transduction","Innate Immune System",Mitotic,"Infectious disease","Signaling by GPCR","Toll-like Receptor Cascades","M Phase","Leishmania infection","GPCR
 ligand binding","Toll Like Receptor 7/8 (TLR7/8) Cascade","Mitotic Metaphase and Anaphase","Leishmania parasite growth and survival","Class A/1 (Rhodopsin-like receptors)","MyD88 dependent cascade in
itiated on endosome","Mitotic Anaphase","Anti-inflammatory response favouring Leishmania parasite infection","Amine ligand-binding receptors","TRAF6 mediated induction of NFkB and MAP kinases upon TLR
7/8 or 9 activation","Nuclear Envelope (NE) Reassembly","ADORA2B mediated anti-inflammatory cytokines production",Adrenoceptors,"Initiation of Nuclear Envelope (NE) Reformation"}

> <broad_targets>
{TLR7,TLR8}

> <broad_moa>
{"interferon inducer","toll-like receptor agonist"}

> <synonyms>
{AK209015,SMR000048307,SY017571,FT-0602727,FT0602727,I0747,D02500,J10325,Z-4416,Z4416,"1-isobutyl-1H-imidazo (4,5-c)quinolin-4-amine","1isobutyl1Himidazo (4,5c)quinolin4amine","1-isobutyl-1H-imidazo(4
,5-c)quinoline-4-amine","1isobutyl1Himidazo(4,5c)quinoline4amine",AB00399298-05,AB0039929805,AB00399298-06,AB0039929806,AB00399298-07,AB0039929807,AB00399298_08,AB0039929808,AB00399298-08,"AB00399298 
08",AB00399298_09,AB0039929809,AB00399298-09,"AB00399298 09",T0134,369100,Prestw-1291,"NSC 369100",Imiquimod}

> <pdid>
PD002592

> <targets>
{}

> <classes>
{"TLR7 agonist"}

> <pubchem_cids>
{57469}

$$$$
NCI_AOD5_2014
  SciTegic11012412592D

 14 13  0  0  0  0            999 V2000
    1.3000    2.2500    0.0000 C   0  0
    1.3000    0.7500    0.0000 S   0  0
    0.0007    0.0004    0.0000 O   0  0
    0.0011    1.5002    0.0000 O   0  0
    2.6000    0.0000    0.0000 O   0  0
    3.9000    0.7500    0.0000 C   0  0
    5.2000    0.0000    0.0000 C   0  0
    6.5000    0.7500    0.0000 C   0  0
    7.7999    0.0000    0.0000 C   0  0
    9.0999    0.7500    0.0000 O   0  0
   10.3999    0.0000    0.0000 S   0  0
   10.3999   -1.5000    0.0000 C   0  0
   11.6992    0.7496    0.0000 O   0  0
   11.6988   -0.7502    0.0000 O   0  0
  1  2  1  0
  2  3  2  0
  2  4  2  0
  2  5  1  0
  5  6  1  0
  6  7  1  0
  7  8  1  0
  8  9  1  0
  9 10  1  0
 10 11  1  0
 11 12  1  0
 11 13  2  0
 11 14  2  0
M  END
> <name>
NCI_AOD5_2014

> <id>
2617

> <plate>
NCI_V5_A

> <well>
G06

> <supplier_cmpd_name>
Busulfan

> <ctcr_id>
2614

> <supplier_cmpd_id>
750

> <smiles>
C[S](=O)(=O)OCCCCO[S](C)(=O)=O

> <pd_targets>
{TSHR,ALDH1A1,KDM4E,LEF,LMNA,ALOX15,MMP9}

> <pathway_gtopdb>
{"Membrane receptor",Enzyme,"Epigenetic regulator","Other nuclear protein","Family A G protein-coupled receptor",Oxidoreductase,Eraser,Protease,"Peptide receptor (family A GPCR)","Lysine demethylase",
"Metallo protease","Glycohormone receptor","Jumonji domain-containing","Metallo protease MAE clan","Metallo protease MAM clan","Metallo protease M34 family","Metallo protease M10A subfamily"}

> <pathway_chembl>
{Receptors,Enzymes,"G protein-coupled receptors","Chromatin modifying enzymes","Eicosanoid turnover","Peptidases and proteinases","Glycoprotein hormone receptors","1.14.11.- Histone demethylases",Lipo
xygenases,"MA: Metallo (M) Peptidases","M10: Matrix metallopeptidase"}

> <pathway_reactome>
{Disease,Metabolism,"Cell Cycle","Developmental Biology","Infectious disease","Biological oxidations",Mitotic,"Metabolism of lipids","Nervous system development","Leishmania infection","Phase I - Func
tionalization of compounds","Uptake and actions of bacterial toxins","M Phase","Biosynthesis of specialized proresolving mediators (SPMs)","Axon guidance","Leishmania parasite growth and survival","Et
hanol oxidation","Uptake and function of anthrax toxins","Mitotic Metaphase and Anaphase","Biosynthesis of DPA-derived SPMs","EPH-Ephrin signaling","Anti-inflammatory response favouring Leishmania par
asite infection","Mitotic Anaphase","Biosynthesis of DPAn-3 SPMs","EPH-ephrin mediated repulsion of cells","ADORA2B mediated anti-inflammatory cytokines production","Nuclear Envelope (NE) Reassembly",
"Biosynthesis of DPAn-3-derived protectins and resolvins","Initiation of Nuclear Envelope (NE) Reformation"}

> <broad_targets>
{}

> <broad_moa>
{"DNA inhibitor"}

> <synonyms>
{busulfan,55-98-1,55981,Myleran,Busulphan,Sulphabutin,Myelosan,Leucosulfan,Busulfex,Citosulfan,Mielucin,Misulban,Mitostan,Myeloleukon,Mylecytan,Sulfabutin,Mablin,Mielevcin,Milecitan,Mielosan,Mileran,"
butane-1,4-diyl dimethanesulfonate","butane1,4diyl dimethanesulfonate",Buzulfan,1,4-Di,4Di,T0923,750,NSC750,SAM002554887,1500152,Prestw-1179,"NSC 750
NSC 750",Busulfan,CPD000058613,BUSULFAN}

> <pdid>
PD002449

> <targets>
{Apoptosis,DNA Alkylator/Crosslinker}

> <classes>
{antineoplastic,alkylating agent,Alkylating agent,Apoptosis,Cell Cycle/DNA Damage}

> <pubchem_cids>
{2478}

$$$$
NCI_AOD5_2014
  SciTegic11012412592D

 14 14  0  0  0  0            999 V2000
    3.8634    3.7731    0.0000 Cl  0  0
    3.8627    2.2731    0.0000 C   0  0
    2.5631    1.5224    0.0000 C   0  0
    2.5625    0.0216    0.0000 N   0  0
    1.2990   -0.7500    0.0000 P   0  0
    1.2623   -2.2495    0.0000 O   0  0
    1.2990    0.7500    0.0000 O   0  0
    0.0000    1.5000    0.0000 C   0  0
   -1.2990    0.7500    0.0000 C   0  0
   -1.2990   -0.7500    0.0000 C   0  0
    0.0000   -1.5000    0.0000 N   0  0
   -0.0031   -3.0008    0.0000 C   0  0
   -1.3039   -3.7494    0.0000 C   0  0
   -1.3070   -5.2494    0.0000 Cl  0  0
  1  2  1  0
  2  3  1  0
  3  4  1  0
  4  5  1  0
  5  6  2  0
  5  7  1  0
  7  8  1  0
  8  9  1  0
  9 10  1  0
 10 11  1  0
 11  5  1  0
 11 12  1  0
 12 13  1  0
 13 14  1  0
M  END
> <name>
NCI_AOD5_2014

> <id>
2618

> <plate>
NCI_V5_A

> <well>
G07

> <supplier_cmpd_name>
Ifosfamide

> <ctcr_id>
6550

> <supplier_cmpd_id>
109724

> <smiles>
ClCCN[P]1(=O)OCCCN1CCCl

> <pd_targets>
{KMT2A,MEN1,LMNA,AMPC}

> <pathway_gtopdb>
{"Epigenetic regulator","Other nuclear protein",Enzyme,Reader,Hydrolase,Bromodomain}

> <pathway_chembl>
{}

> <pathway_reactome>
{"Cell Cycle",Mitotic,"M Phase","Mitotic Metaphase and Anaphase","Mitotic Anaphase","Nuclear Envelope (NE) Reassembly","Initiation of Nuclear Envelope (NE) Reformation"}

> <broad_targets>
{CYP2A6,CYP2B6,CYP2C18,CYP2C19,CYP2C8,CYP2C9,CYP3A4,CYP3A5,CYP3A7,PTGS1}

> <broad_moa>
{"DNA alkylating agent"}

> <synonyms>
{ifosfamide,Isophosphamide,3778-73-2,3778732,Iphosphamide,Isofosfamide,Ifosfamid,Mitoxana,Ifex,Iphosphamid,Isoendoxan,Naxamide,I-Phosphamide,IPhosphamide,Holoxan,Cyfos,Ifsofamide,"Holoxan 1000","ASTA 
Z 4942",Ifosfamida,Ifosfamidum,"MJF 9325",isosfamide,NCI-C01638,NCIC01638,MJ,T1055,109724,S1302,1505480,Prestw-833,"NSC 109724",Ifosfamide,IFOSFAMIDE}

> <pdid>
PD000385

> <targets>
{DNA Alkylator/Crosslinker}

> <classes>
{antineoplastic,Alkylating agent,Cell Cycle/DNA Damage}

> <pubchem_cids>
{3690}

$$$$
NCI_AOD5_2014
  SciTegic11012412592D

 25 26  0  0  0  0            999 V2000
   11.6982   -0.7323    0.0000 C   0  0
   10.4003   -1.4841    0.0000 C   0  0
    9.0990   -0.7364    0.0000 C   0  0
    7.8003   -1.4887    0.0000 C   0  0
    6.4990   -0.7409    0.0000 C   0  0
    5.2003   -1.4932    0.0000 O   0  0
    3.8990   -0.7455    0.0000 C   0  0
    3.8964    0.7545    0.0000 O   0  0
    2.6003   -1.4977    0.0000 N   0  0
    1.2990   -0.7500    0.0000 C   0  0
    1.2990    0.7500    0.0000 N   0  0
    0.0000    1.5000    0.0000 C   0  0
    0.0000    3.0000    0.0000 O   0  0
   -1.2990    0.7500    0.0000 N   0  0
   -1.2990   -0.7500    0.0000 C   0  0
    0.0000   -1.5000    0.0000 C   0  0
    0.0000   -3.0000    0.0000 F   0  0
   -2.5987    1.5004    0.0000 C   0  0
   -3.9492    0.8772    0.0000 O   0  0
   -4.9546    1.9903    0.0000 C   0  0
   -6.4462    1.8312    0.0000 C   0  0
   -4.2067    3.2905    0.0000 C   0  0
   -4.8190    4.6599    0.0000 O   0  0
   -2.7390    2.9810    0.0000 C   0  0
   -1.6199    3.9798    0.0000 O   0  0
  1  2  1  0
  2  3  1  0
  3  4  1  0
  4  5  1  0
  5  6  1  0
  6  7  1  0
  7  8  2  0
  7  9  1  0
  9 10  1  0
 10 11  2  3
 11 12  1  0
 12 13  2  0
 12 14  1  0
 14 15  1  0
 15 16  2  3
 16 10  1  0
 16 17  1  0
 14 18  1  0
 18 19  1  0
 19 20  1  0
 20 21  1  0
 20 22  1  0
 22 23  1  0
 22 24  1  0
 24 18  1  0
 24 25  1  0
M  END
> <name>
NCI_AOD5_2014

> <id>
2619

> <plate>
NCI_V5_A

> <well>
G08

> <supplier_cmpd_name>
Capecitabine

> <ctcr_id>
4821

> <supplier_cmpd_id>
712807

> <smiles>
CCCCCOC(=O)NC1=NC(=O)N(C=C1F)C2OC(C)C(O)C2O

> <pd_targets>
{TYMS}

> <pathway_gtopdb>
{Enzyme,Transferase}

> <pathway_chembl>
{Enzymes,"2.1.1.- Methyltransferases"}

> <pathway_reactome>
{"Cell Cycle",Mitotic,"Mitotic G1 phase and G1/S transition","G1/S Transition","G1/S-Specific Transcription"}

> <broad_targets>
{TYMS}

> <broad_moa>
{"DNA synthesis inhibitor","thymidylate synthase inhibitor"}

> <synonyms>
{Capecitabine-d11,Capecitabined11,158798-73-3,158798733,"Xeloda (Roche)",1132662-08-8,1132662088,"Ro 09-1978;Xeloda","Ro 091978;Xeloda",CHEMBL144071,SCHEMBL4939140,HMS3654E12,BCP29814,NSC712807,STL452
962,AKOS015895132,MCULE-5430397636,MCULE5430397636,NSC-712807,AK-72933,AK72933,AS-14678,AS14678,M142,AB0005278,FT-0601618,FT0601618,FT-066422,FT066422,712807,S1156,"NSC 712807",Capecitabine}

> <pdid>
PD000490

> <targets>
{"DNA/RNA Synthesis"}

> <classes>
{"DNA Damage","Nucleoside Metabolic Inhibitor"}

> <pubchem_cids>
{400633}

$$$$
NCI_AOD5_2014
  SciTegic11012412592D

 10 11  0  0  0  0            999 V2000
    2.5981   -1.5000    0.0000 S   0  0
    1.2990   -0.7500    0.0000 C   0  0
    1.2990    0.7500    0.0000 N   0  0
    0.0000    1.5000    0.0000 C   0  0
   -1.2990    0.7500    0.0000 N   0  0
   -1.2990   -0.7500    0.0000 C   0  0
   -2.4133   -1.7530    0.0000 N   0  0
   -1.8032   -3.1233    0.0000 C   0  0
   -0.3114   -2.9665    0.0000 N   0  0
    0.0000   -1.5000    0.0000 C   0  0
  1  2  2  0
  2  3  1  0
  3  4  1  0
  4  5  2  3
  5  6  1  0
  6  7  1  0
  7  8  2  0
  8  9  1  0
  9 10  1  0
 10  2  1  0
 10  6  2  0
M  END
> <name>
NCI_AOD5_2014

> <id>
2620

> <plate>
NCI_V5_A

> <well>
G09

> <supplier_cmpd_name>
Mercaptopurine

> <ctcr_id>
3739

> <supplier_cmpd_id>
755

> <smiles>
S=C1NC=Nc2nc[nH]c12

> <pd_targets>
{ALDH1A1,FFP,ALD,PNP}

> <pathway_gtopdb>
{Enzyme,Oxidoreductase,Transferase}

> <pathway_chembl>
{Enzymes,"2.4.2.1 Purine-nucleoside phosphorylase"}

> <pathway_reactome>
{Metabolism,"Biological oxidations","Metabolism of nucleotides","Phase I - Functionalization of compounds","Nucleobase catabolism","Ethanol oxidation","Purine catabolism"}

> <broad_targets>
.

> <broad_moa>
.

> <synonyms>
{RESTW146,6-Mercaptopurine,6Mercaptopurine,mercaptopurine,50-44-2,50442,Purinethol,Mercapurin,6-Thiopurine,6Thiopurine,Leukerin,Leupurin,Mercaleukin,7H-purine-6-thiol,7Hpurine6thiol,6-Thioxopurine,6Th
ioxopurine,Puri-Nethol,PuriNethol,Ismipur,Mern,6-Thiohypoxanthine,6Thiohypoxanthine,6-Mercaptopurin,6Mercaptopurin,6-Purinethiol,6Purinethiol,Purimethol,Purinethiol,6-MP,6MP,1,755,NSC755,SAM002589937,
1500387,Prestw-1469,"NSC 755
NSC 755",Mercaptopurine,CPD000544948,MERCAPTOPURINE}

> <pdid>
PD001959

> <targets>
{}

> <classes>
{antineoplastic,Anti-metabolite,"purine antimetabolite"}

> <pubchem_cids>
{667490}

$$$$
NCI_AOD5_2014
  SciTegic11012412592D

  9  9  0  0  0  0            999 V2000
    2.5981   -1.5000    0.0000 O   0  0
    1.2990   -0.7500    0.0000 C   0  0
    1.2990    0.7500    0.0000 N   0  0
    0.0000    1.5000    0.0000 C   0  0
   -1.2990    0.7500    0.0000 C   0  0
   -2.5981    1.5000    0.0000 F   0  0
   -1.2990   -0.7500    0.0000 C   0  0
   -2.5981   -1.5000    0.0000 O   0  0
    0.0000   -1.5000    0.0000 N   0  0
  1  2  1  0
  2  3  2  0
  3  4  1  0
  4  5  2  0
  5  6  1  0
  5  7  1  0
  7  8  1  0
  7  9  2  0
  9  2  1  0
M  END
> <name>
NCI_AOD5_2014

> <id>
2621

> <plate>
NCI_V5_A

> <well>
G10

> <supplier_cmpd_name>
Fluorouracil

> <ctcr_id>
604

> <supplier_cmpd_id>
19893

> <smiles>
Oc1ncc(F)c(O)n1

> <pd_targets>
.

> <pathway_gtopdb>
.

> <pathway_chembl>
.

> <pathway_reactome>
.

> <broad_targets>
.

> <broad_moa>
.

> <synonyms>
{5-Fluorouracil,5Fluorouracil,fluorouracil,51-21-8,51218,5-FU,5FU,Fluoroplex,Efudex,Adrucil,Carac,"5-fluoropyrimidine-2,4(1H,3H)-dione","5fluoropyrimidine2,4(1H,3H)dione",Fluracil,Fluoroblastin,Kecime
ton,Carzonal,Timazin,Arumel,Efudix,Fluril,5-Fluoracil,5Fluoracil,Fluracilum,Queroplex,Ulup,Phthoruracil,5-fluoro-,5fluoro,19893,S1209,SAM002264615,1500305,Prestw-1203,"NSC 19893",Fluorouracil,CPD00003
8082,FLUOROURACIL,5-fluorouracil}

> <pdid>

> <targets>
{}

> <classes>
{"pyrimidine antimetabolite",antineoplastic,Anti-metabolite}

> <pubchem_cids>
{3385}

$$$$
NCI_AOD5_2014
  SciTegic11012412592D

 33 35  0  0  1  0            999 V2000
    1.2948   -3.7516    0.0000 C   0  0
    2.5951   -3.0039    0.0000 N   0  0
    2.5973   -1.5031    0.0000 C   0  0
    1.2990   -0.7500    0.0000 C   0  0
    1.2990    0.7500    0.0000 C   0  0
    0.0000    1.5000    0.0000 N   0  0
   -1.2990    0.7500    0.0000 C   0  0
   -2.5981    1.5000    0.0000 N   0  0
   -3.8971    0.7500    0.0000 C   0  0
   -5.1962    1.5000    0.0000 N   0  0
   -3.8971   -0.7500    0.0000 N   0  0
   -2.5981   -1.5000    0.0000 C   0  0
   -2.5981   -3.0000    0.0000 N   0  0
   -1.2990   -0.7500    0.0000 C   0  0
    0.0000   -1.5000    0.0000 N   0  0
    3.8933   -3.7570    0.0000 C   0  0
    3.8934   -5.2570    0.0000 C   0  0
    5.1924   -6.0070    0.0000 C   0  0
    6.4915   -5.2571    0.0000 C   0  0
    6.4915   -3.7571    0.0000 C   0  0
    5.1925   -3.0070    0.0000 C   0  0
    7.7928   -6.0048    0.0000 C   0  0
    7.7953   -7.5048    0.0000 O   0  0
    9.0914   -5.2526    0.0000 N   0  0
   10.3927   -6.0004    0.0000 C   0  0  1  0  0  0
   11.6914   -5.2481    0.0000 C   0  0
   12.9927   -5.9959    0.0000 C   0  0
   14.2914   -5.2437    0.0000 C   0  0
   14.2888   -3.7437    0.0000 O   0  0
   15.5920   -5.9910    0.0000 O   0  0
   10.3984   -7.5012    0.0000 C   0  0
    9.1020   -8.2557    0.0000 O   0  0
   11.6998   -8.2471    0.0000 O   0  0
  1  2  1  0
  2  3  1  0
  3  4  1  0
  4  5  2  0
  5  6  1  0
  6  7  2  0
  7  8  1  0
  8  9  2  0
  9 10  1  0
  9 11  1  0
 11 12  2  0
 12 13  1  0
 12 14  1  0
 14  7  1  0
 14 15  2  0
 15  4  1  0
  2 16  1  0
 16 17  2  0
 17 18  1  0
 18 19  2  0
 19 20  1  0
 20 21  2  0
 21 16  1  0
 19 22  1  0
 22 23  2  0
 22 24  1  0
 25 24  1  1
 25 26  1  0
 26 27  1  0
 27 28  1  0
 28 29  1  0
 28 30  2  0
 25 31  1  0
 31 32  1  0
 31 33  2  0
M  END
> <name>
NCI_AOD5_2014

> <id>
2622

> <plate>
NCI_V5_A

> <well>
G11

> <supplier_cmpd_name>
Methotrexate

> <ctcr_id>
5290

> <supplier_cmpd_id>
740

> <smiles>
CN(Cc1cnc2nc(N)nc(N)c2n1)c3ccc(cc3)C(=O)N[C@@H](CCC(O)=O)C(O)=O

> <pd_targets>
{SKA,DFRA17,CASP1,DFRA,DHFR,FOLA,THYA,APE1,PTR1,KDM4E,CASP7,MAPT,HMGB1,KMT2A,MEN1,HSD17B10,TDP1,ALDH1A1,TP53,TYMS,LMNA,FFP,APEX1,SLC19A1,BLM,GLA,ALOX15,POLB,HPGD,LMP1,NCOA3,FOLR2,FPGS,SLC46A1,ABCC3,FO
LR1,ATIC,GART}

> <pathway_gtopdb>
{Enzyme,"Epigenetic regulator","Other cytosolic protein","Unclassified protein","Transcription factor","Other nuclear protein",Transporter,"Membrane receptor",Kinase,Oxidoreductase,Protease,Transferas
e,Eraser,Reader,Hydrolase,"Electrochemical transporter",Writer,Ligase,"Primary active transporter","Cysteine protease","Metallo protease","Lysine demethylase",Bromodomain,"SLC superfamily of solute ca
rriers","Histone acetyltransferase","ATP-binding cassette","Cysteine protease CD clan","Metallo protease MH clan","Jumonji domain-containing","SLC19 family of vitamin transporters","SRC family","SLC46
 family of folate transporters","ABCC subfamily","Cysteine protease C14 family","Metallo protease M18 family"}

> <pathway_chembl>
{Enzymes,Transporters,"Peptidases and proteinases","1.-.-.- Oxidoreductases","Chromatin modifying enzymes","2.1.1.- Methyltransferases","SLC superfamily of solute carriers","Eicosanoid turnover","ATP-
binding cassette transporter family","CD: Cysteine (C) Peptidases","1.14.11.- Histone demethylases","SLC19 family of vitamin transporters",Lipoxygenases,"Prostaglandin synthases","2.3.1.48 Histone ace
tyltransferases (HATs)","SLC46 family of folate transporters","ABCC subfamily","C14: Caspase"}

> <pathway_reactome>
{"Gene expression (Transcription)","Cell Cycle","Programmed Cell Death","Neuronal System","Immune System",Metabolism,"DNA Repair","Metabolism of proteins","RNA Polymerase II Transcription",Mitotic,Apo
ptosis,"Transmission across Chemical Synapses","Innate Immune System","Metabolism of amino acids and derivatives","DNA Double-Strand Break Repair","Biological oxidations","Cell Cycle Checkpoints","Bas
e Excision Repair","Metabolism of vitamins and cofactors","Metabolism of lipids","Post-translational protein modification","Metabolism of nucleotides","Generic Transcription Pathway","Mitotic G1 phase
 and G1/S transition","Intrinsic Pathway for Apoptosis","Neurotransmitter receptors and postsynaptic signal transmission","Toll-like Receptor Cascades","Branched-chain amino acid catabolism","Nonhomol
ogous End-Joining (NHEJ)","Phase I - Functionalization of compounds","G1/S DNA Damage Checkpoints","M Phase","Resolution of Abasic Sites (AP sites)","Metabolism of water-soluble vitamins and cofactors
","Homology Directed Repair","Sphingolipid metabolism","Biosynthesis of specialized proresolving mediators (SPMs)","Regulation of lipid metabolism by PPARalpha","Metabolism of steroids","Asparagine N-
linked glycosylation","Nucleobase biosynthesis","Transcriptional Regulation by TP53","G1/S Transition","Apoptotic factor-mediated response","Activation of NMDA receptors and postsynaptic events","Toll
 Like Receptor 5 (TLR5) Cascade","Ethanol oxidation","p53-Dependent G1/S DNA damage checkpoint","Mitotic Metaphase and Anaphase","Resolution of AP sites via the multiple-nucleotide patch replacement p
athway","Metabolism of folate and pterines","HDR through Homologous Recombination (HRR) or Single Strand Annealing (SSA)","Glycosphingolipid metabolism","Biosynthesis of DPA-derived SPMs","Biosynthesi
s of DHA-derived SPMs","PPARA activates gene expression","Bile acid and bile salt metabolism","Transport to the Golgi and subsequent modification","Purine ribonucleoside monophosphate biosynthesis","T
P53 Regulates Transcription of Cell Death Genes","G1/S-Specific Transcription","Cytochrome c-mediated apoptotic response","Post NMDA receptor activation events","MyD88 cascade initiated on plasma memb
rane","p53-Dependent G1 DNA Damage Response","Mitotic Anaphase","PCNA-Dependent Long Patch Base Excision Repair","HDR through Homologous Recombination (HRR)","Biosynthesis of DPAn-3 SPMs","Biosynthesi
s of D-series resolvins","Recycling of bile acids and salts","ER to Golgi Anterograde Transport","TP53 Regulates Transcription of Caspase Activators and Caspases","Activation of caspases through apopt
osome-mediated cleavage","Activation of AMPK downstream of NMDARs","TAK1 activates NFkB by phosphorylation and activation of IKKs complex","Stabilization of p53","Nuclear Envelope (NE) Reassembly","Ho
mologous DNA Pairing and Strand Exchange","Biosynthesis of DPAn-3-derived protectins and resolvins","Cargo concentration in the ER","Autodegradation of the E3 ubiquitin ligase COP1","Initiation of Nuc
lear Envelope (NE) Reformation","Presynaptic phase of homologous DNA pairing and strand exchange"}

> <broad_targets>
{DHFR}

> <broad_moa>
{"dihydrofolate reductase inhibitor"}

> <synonyms>
{methotrexate,59-05-2,59052,Rheumatrex,Amethopterin,Abitrexate,Trexall,Metatrexan,Hdmtx,Methylaminopterinum,MTX,"4-Amino-10-methylfolic acid","4Amino10methylfolic acid","Methotrexate hydrate",Methylam
inopterin,Methotrexatum,Metotrexato,Maxtrex,Rasuvo,Mexate-Aq,MexateAq,N-Bismethylpteroylgl,NBismethylpteroylgl,740,S1210,NSC740,Prestw-135,"NSC 740
NSC 740",Methotrexate}

> <pdid>
PD002823

> <targets>
{ADC Cytotoxin,Antifolate,Apoptosis,DNA/RNA Synthesis}

> <classes>
{dihydrofolate reductase inhibitor,Antibody-drug Conjugate/ADC Related,Apoptosis,Cell Cycle/DNA Damage}

> <pubchem_cids>
{126941}

$$$$
NCI_AOD5_2014
  SciTegic11012412592D

 24 27  0  0  1  0            999 V2000
    1.4851   -1.5024    0.0000 C   0  0
    2.1092   -0.1384    0.0000 O   0  0
    3.6065    0.0000    0.0000 C   0  0  1  0  0  0
    2.7248   -1.2135    0.0000 C   0  0  2  0  0  0
    3.1905   -2.6376    0.0000 C   0  0
    4.6589   -2.9478    0.0000 O   0  0
    5.1253   -4.3743    0.0000 C   0  0
    4.1234   -5.4906    0.0000 N   0  0
    6.5929   -4.6843    0.0000 O   0  0
    1.2990   -0.7500    0.0000 C   0  0
    1.2990    0.7500    0.0000 C   0  0
    2.7248    1.2135    0.0000 N   0  0
    3.6281    2.3993    0.0000 C   0  0
    5.0501    1.9218    0.0000 C   0  0  2  0  0  0
    6.3350    1.1594    0.0000 N   0  0
    5.0354    0.4219    0.0000 C   0  0  2  0  0  0
    0.0000    1.5000    0.0000 C   0  0
    0.0000    3.0000    0.0000 O   0  0
   -1.2990    0.7500    0.0000 C   0  0
   -1.2990   -0.7500    0.0000 C   0  0
   -2.5981   -1.5000    0.0000 N   0  0
    0.0000   -1.5000    0.0000 C   0  0
    0.0000   -3.0000    0.0000 O   0  0
   -2.5981    1.5000    0.0000 C   0  0
  1  2  1  0
  3  2  1  1
  3  4  1  0
  4  5  1  6
  5  6  1  0
  6  7  1  0
  7  8  1  0
  7  9  2  0
  4 10  1  0
 10 11  2  3
 11 12  1  0
 12  3  1  0
 12 13  1  0
 14 13  1  6
 14 15  1  0
 16 15  1  6
 16  3  1  0
 16 14  1  0
 11 17  1  0
 17 18  2  0
 17 19  1  0
 19 20  2  3
 20 21  1  0
 20 22  1  0
 22 10  1  0
 22 23  2  0
 19 24  1  0
M  END
> <name>
NCI_AOD5_2014

> <id>
2623

> <plate>
NCI_V5_A

> <well>
H02

> <supplier_cmpd_name>
Mitomycin

> <ctcr_id>
1828

> <supplier_cmpd_id>
26980

> <smiles>
CO[C@@]12[C@H](COC(N)=O)C3=C(N1C[C@@H]4N[C@H]24)C(=O)C(=C(N)C3=O)C

> <pd_targets>
{IDO1}

> <pathway_gtopdb>
{Enzyme,Oxidoreductase}

> <pathway_chembl>
{Enzymes,"1.13.11.- Dioxygenases"}

> <pathway_reactome>
{Metabolism,"Metabolism of amino acids and derivatives","Tryptophan catabolism"}

> <broad_targets>
{}

> <broad_moa>
{"DNA alkylating agent","DNA synthesis inhibitor"}

> <synonyms>
{"mitomycin C",Mitomycin,50-07-7,50077,Mutamycin,Ametycine,Mitomycin-C,MitomycinC,Mitocin-C,MitocinC,Ametycin,Mytomycin,Mitomycinum,Mytozytrex,Mitozytrex,"Mitocin C",Mitamycin,MMC,Mitosol,7-Amino-9alp
ha-methoxymitosane,7Amino9alphamethoxymitosane,NSC-26980,NSC26980,C15H18N4O5,"NSC 26980","Mitomycyna C",NCI-C0,NCIC0,T6890,26980,M0440,"NSC 26980
NSC 26980","Mitomycin C",mitomycin}

> <pdid>
PD001946

> <targets>
{}

> <classes>
{"Alkylating agent"}

> <pubchem_cids>
{5746}

$$$$
NCI_AOD5_2014
  SciTegic11012412592D

 40 44  0  0  0  0            999 V2000
   11.8016   -2.6093    0.0000 C   0  0
   11.1870   -3.9775    0.0000 S   0  0
   12.0650   -5.1937    0.0000 O   0  0
   12.6792   -3.8255    0.0000 O   0  0
    9.6938   -4.1290    0.0000 C   0  0
    8.8153   -2.9121    0.0000 C   0  0
    7.3221   -3.0635    0.0000 N   0  0
    6.4437   -1.8466    0.0000 C   0  0
    4.9531   -1.9978    0.0000 C   0  0
    3.9511   -0.8815    0.0000 O   0  0
    2.5987   -1.5004    0.0000 C   0  0
    2.7343   -2.9815    0.0000 C   0  0
    4.2010   -3.2956    0.0000 C   0  0
    1.2990   -0.7500    0.0000 C   0  0
    1.2990    0.7500    0.0000 C   0  0
    0.0000    1.5000    0.0000 C   0  0
   -1.2990    0.7500    0.0000 C   0  0
   -2.5981    1.5000    0.0000 N   0  0
   -3.8971    0.7500    0.0000 C   0  0
   -3.8971   -0.7500    0.0000 N   0  0
   -2.5981   -1.5000    0.0000 C   0  0
   -2.6011   -3.0008    0.0000 N   0  0
   -3.9020   -3.7494    0.0000 C   0  0
   -3.9072   -5.2494    0.0000 C   0  0
   -5.2089   -5.9949    0.0000 C   0  0
   -6.5053   -5.2405    0.0000 C   0  0
   -7.8061   -5.9891    0.0000 O   0  0
   -7.8091   -7.4899    0.0000 C   0  0
   -9.1099   -8.2385    0.0000 C   0  0
   -9.1152   -9.7385    0.0000 C   0  0
  -10.4168  -10.4840    0.0000 C   0  0
  -11.7132   -9.7296    0.0000 C   0  0
  -11.7081   -8.2296    0.0000 C   0  0
  -13.0046   -7.4752    0.0000 F   0  0
  -10.4065   -7.4841    0.0000 C   0  0
   -6.5001   -3.7405    0.0000 C   0  0
   -7.7966   -2.9860    0.0000 Cl  0  0
   -5.1985   -2.9950    0.0000 C   0  0
   -1.2990   -0.7500    0.0000 C   0  0
    0.0000   -1.5000    0.0000 C   0  0
  1  2  1  0
  2  3  2  0
  2  4  2  0
  2  5  1  0
  5  6  1  0
  6  7  1  0
  7  8  1  0
  8  9  1  0
  9 10  1  0
 10 11  1  0
 11 12  2  0
 12 13  1  0
 13  9  2  0
 11 14  1  0
 14 15  2  0
 15 16  1  0
 16 17  2  0
 17 18  1  0
 18 19  2  0
 19 20  1  0
 20 21  2  0
 21 22  1  0
 22 23  1  0
 23 24  2  0
 24 25  1  0
 25 26  2  0
 26 27  1  0
 27 28  1  0
 28 29  1  0
 29 30  2  0
 30 31  1  0
 31 32  2  0
 32 33  1  0
 33 34  1  0
 33 35  2  0
 35 29  1  0
 26 36  1  0
 36 37  1  0
 36 38  2  0
 38 23  1  0
 21 39  1  0
 39 17  1  0
 39 40  2  0
 40 14  1  0
M  END
> <name>
NCI_AOD5_2014

> <id>
2624

> <plate>
NCI_V5_A

> <well>
H03

> <supplier_cmpd_name>
Lapatinib

> <ctcr_id>
2977

> <supplier_cmpd_id>
745750

> <smiles>
C[S](=O)(=O)CCNCc1oc(cc1)c2ccc3ncnc(Nc4ccc(OCc5cccc(F)c5)c(Cl)c4)c3c2

> <pd_targets>
{AURKB,RET,ERBB2,EGFR,ABL1,ABCB11,PDGFRB,ERBB3,KCNH2,CYP3A5,CDK2,INSR,PIK3C2B,TUBA1A,SLK,KMT2A,MEN1,PI4KB,MAP2K5,STK10,MAP2K7,RIPK2,CYP3A4,PIK3C2G,ERBB4,AADB}

> <pathway_gtopdb>
{Enzyme,Transporter,"Ion channel","Structural protein","Epigenetic regulator",Kinase,"Primary active transporter","Voltage-gated ion channel","Cytochrome P450",Transferase,Reader,"Protein Kinase","ATP
-binding cassette","Potassium channels","Cytochrome P450 family 3",Bromodomain,"Other protein kinase group","TK protein kinase group","ABCB subfamily","Voltage-gated potassium channel","Cytochrome P45
0 family 3A","CMGC protein kinase group","STE protein kinase group","TKL protein kinase group","Other protein kinase AUR family","Tyrosine protein kinase Ret family","Tyrosine protein kinase EGFR fami
ly","Tyrosine protein kinase Abl family","Tyrosine protein kinase PDGFR family","Cytochrome P450 3A5","CMGC protein kinase CDK family","Tyrosine protein kinase InsR family","STE protein kinase STE20 f
amily","STE protein kinase STE7 family","TKL protein kinase RIPK family","Cytochrome P450 3A4","CMGC protein kinase CDC2 subfamily","STE protein kinase SLK subfamily"}

> <pathway_chembl>
{Receptors,Transporters,"Ion channels",Enzymes,"Other protein targets","Catalytic receptors","ATP-binding cassette transporter family","Voltage-gated ion channels","Cytochrome P450","Kinases (EC 2.7.x
.x)",Tubulins,"Receptor kinases","ABCB subfamily","Potassium channels","CYP3 family","CMGC: Containing CDK",MAPK,GSK3,"CLK families","Lipid modifying kinases","STE: Homologs of yeast Sterile 7","Steri
le 11","Sterile 20 kinases","Other protein kinases","TK: Tyrosine kinase","Voltage-gated potassium channels","Cyclin-dependent kinase (CDK) family","Phosphatidylinositol-4-phosphate 3-kinase family","
STE20 family","1-phosphatidylinositol 4-kinase family","STE7 family","TKL: Tyrosine kinase-like","Aurora kinase (Aur) family","Receptor tyrosine kinases (RTKs)","Non-receptor tyrosine kinases (nRTKs)"
,"CDK1 subfamily","SLK subfamily","Receptor interacting protein kinase (RIPK) family","Type XIV RTKs: RET","Type I RTKs: ErbB (epidermal growth factor) receptor family","Abl family","Type III RTKs: PD
GFR",CSFR,Kit,"FLT3 receptor family","Type II RTKs: Insulin receptor family"}

> <pathway_reactome>
{"Cell Cycle","Developmental Biology","Signal Transduction",Disease,Metabolism,"Muscle contraction","Gene expression (Transcription)","Immune System","Neuronal System",Mitotic,"Nervous system developm
ent","Signaling by GPCR","Infectious disease","Metabolism of lipids","Intracellular signaling by second messengers","Cardiac conduction","Biological oxidations","RNA Polymerase II Transcription","Sign
aling by Receptor Tyrosine Kinases","Innate Immune System","Transmission across Chemical Synapses","M Phase","Axon guidance","GPCR downstream signalling","Leishmania infection","Metabolism of steroids
","PIP3 activates AKT signaling","Phase 3 - rapid repolarisation","Phase I - Functionalization of compounds","Generic Transcription Pathway","Phospholipid metabolism","Mitotic G2-G2/M phases","Signali
ng by NTRKs","Neutrophil degranulation","Toll-like Receptor Cascades","Biosynthesis of specialized proresolving mediators (SPMs)","Neurotransmitter receptors and postsynaptic signal transmission","Mit
otic Metaphase and Anaphase","RET signaling","Semaphorin interactions","G alpha (q) signalling events","Parasite infection","Bile acid and bile salt metabolism","Negative regulation of the PI3K/AKT ne
twork","Cytochrome P450 - arranged by substrate type","Transcriptional Regulation by TP53","PI Metabolism","G2/M Transition","Signaling by NTRK1 (TRKA)","Toll Like Receptor 5 (TLR5) Cascade","Biosynth
esis of DHA-derived SPMs","Activation of NMDA receptors and postsynaptic events","Mitotic Anaphase","Sema4D in semaphorin signaling","Gastrin-CREB signalling pathway via PKC and MAPK","Leishmania phag
ocytosis","Synthesis of bile acids and bile salts",PI5P,"PP2A and IER3 Regulate PI3K/AKT Signaling",Xenobiotics,"Regulation of TP53 Activity","Synthesis of PIPs at the plasma membrane","Centrosome mat
uration","Synthesis of PIPs at the Golgi membrane","Signalling to ERK5","MyD88 cascade initiated on plasma membrane","Biosynthesis of maresins","Post NMDA receptor activation events","Separation of Si
ster Chromatids","Sema4D induced cell migration and growth-cone collapse","EGFR Transactivation by Gastrin","FCGR3A-mediated phagocytosis","Synthesis of bile acids and bile salts via 7alpha-hydroxycho
lesterol","Regulation of TP53 Expression and Degradation","Loss of proteins required for interphase microtubule organization from the centrosome","MAP kinase activation","Biosynthesis of maresin-like 
SPMs","Long-term potentiation","Regulation of TP53 Degradation","Loss of Nlp from mitotic centrosomes","JNK (c-Jun kinases) phosphorylation and  activation mediated by activated human TAK1","activated
 TAK1 mediates p38 MAPK activation"}

> <broad_targets>
{EGFR,ERBB2}

> <broad_moa>
{"EGFR inhibitor"}

> <synonyms>
{231277-92-2,231277922,Tykerb,Lapatinib,GW572016,"Lapatinib base","GW 572016",Tyverb,388082-78-8,388082788,"Lapatinib tosilate hydrate","Lapatinib free base",UNII-0VUA21238F,UNII0VUA21238F,"Lapatinib 
(free base)","231277-92-2 (free base)","231277922 (free base)",MFCD09264194,FMM,CHEMBL554,GW-572016,CHEBI:496,T0078,745750,SY-Lapatinib,S2111,"NSC 745750","Lapatinib    (GW572016,   Tykerb)","Lapatini
b (GW-572016) Ditosylate",LAPATINIB,"Lapatinib ditosylate"}

> <pdid>
PD003505

> <targets>
{EGFR(HER),HER2,EGFR}

> <classes>
{"HER2/EGFR inhibitor"}

> <pubchem_cids>
{208908}

$$$$
NCI_AOD5_2014
  SciTegic11012412592D

 20 19  0  0  0  0            999 V2000
    7.5987    1.5801    0.0000 H   0  3
    5.0987    1.5801    0.0000 Cl  0  5
    2.5981   -1.5000    0.0000 N   0  0
    1.2990   -0.7500    0.0000 C   0  0
    1.2990    0.7500    0.0000 N   0  0
    0.0000    1.5000    0.0000 C   0  0
    0.0000    3.0000    0.0000 O   0  0
   -1.2990    0.7500    0.0000 N   0  0
   -1.2990   -0.7500    0.0000 C   0  0
    0.0000   -1.5000    0.0000 C   0  0
   -2.5987    1.5004    0.0000 C   0  0
   -3.9492    0.8772    0.0000 O   0  0
   -4.9546    1.9903    0.0000 C   0  0
   -6.4441    1.8282    0.0000 C   0  0
   -7.0500    0.4561    0.0000 O   0  0
   -4.2067    3.2905    0.0000 C   0  0
   -4.8190    4.6599    0.0000 O   0  0
   -2.7390    2.9810    0.0000 C   0  0
   -1.3214    2.4906    0.0000 F   0  0
   -3.0655    4.4450    0.0000 F   0  0
  3  4  1  0
  4  5  2  3
  5  6  1  0
  6  7  2  0
  6  8  1  0
  8  9  1  0
  9 10  2  3
 10  4  1  0
  8 11  1  0
 11 12  1  0
 12 13  1  0
 13 14  1  0
 14 15  1  0
 13 16  1  0
 16 17  1  0
 16 18  1  0
 18 11  1  0
 18 19  1  0
 18 20  1  0
M  CHG  2   1   1   2  -1
M  END
> <name>
NCI_AOD5_2014

> <id>
2625

> <plate>
NCI_V5_A

> <well>
H04

> <supplier_cmpd_name>
Gemcitabine hydrochloride

> <ctcr_id>
3006

> <supplier_cmpd_id>
613327

> <smiles>
[H+].[Cl-].NC1=NC(=O)N(C=C1)C2OC(CO)C(O)C2(F)F

> <pd_targets>
{REP,POLA1,POLA2,POLD1,POLD2,POLD3,POLD4,POLE,POLE2,POLE3,PRIM1,PRIM2,RRM1,RRM2,RRM2B,TYMS,CMPK1}

> <pathway_gtopdb>
{Enzyme,Transferase,Oxidoreductase}

> <pathway_chembl>
{"Other protein targets",Enzymes,"Anti-infective targets","1.17.4.1 Ribonucleoside-diphosphate reductases","2.1.1.- Methyltransferases","Viral protein targets","Coronavirus (CoV) proteins"}

> <pathway_reactome>
{Disease,"Cell Cycle",Metabolism,"Infectious disease",Mitotic,"Metabolism of nucleotides","SARS-CoV Infections","Mitotic G1 phase and G1/S transition","Interconversion of nucleotide di- and triphospha
tes","SARS-CoV-1 Infection","G1/S Transition","SARS-CoV-1 Genome Replication and Transcription","G1/S-Specific Transcription","Replication of the SARS-CoV-1 genome"}

> <broad_targets>
{CMPK1,RRM1,RRM2,TYMS}

> <broad_moa>
{"ribonucleotide reductase inhibitor"}

> <synonyms>
{122111-05-1,122111051,MFCD01735988,NSC-613327,NSC613327,SCHEMBL6685259,CHEMBL1982111,"1'-Epi Gemcitabine (hydrochloride)","1'Epi Gemcitabine (hydrochloride)",CG0033,AKOS015895121,MCULE-7666376311,MCU
LE7666376311,"Gemcitabine (alpha-Isomer) Hydrochloride","Gemcitabine (alphaIsomer) Hydrochloride",AK-94770,AK94770,SY014538,FT-0626640,FT0626640,FT-0667898,FT0667898,A804,613327,"NSC 613327","Gemcitab
ine hydrochloride"}

> <pdid>
PD003524

> <targets>
{}

> <classes>
{Antimetabolite}

> <pubchem_cids>
{356653,75069226}

$$$$
NCI_AOD5_2014
  SciTegic11012412592D

 12 11  0  0  0  0            999 V2000
    0.0007    0.0004    0.0000 Cl  0  0
    1.3000    0.7500    0.0000 C   0  0
    2.6000    0.0000    0.0000 C   0  0
    3.9000    0.7500    0.0000 N   0  0
    5.2000    0.0000    0.0000 C   0  0
    5.2000   -1.5000    0.0000 O   0  0
    6.5000    0.7500    0.0000 N   0  0
    7.7999    0.0000    0.0000 C   0  0
    9.0999    0.7500    0.0000 C   0  0
   10.3992    0.0004    0.0000 Cl  0  0
    6.5030    2.2508    0.0000 N   0  0
    7.8031    2.9990    0.0000 O   0  0
  1  2  1  0
  2  3  1  0
  3  4  1  0
  4  5  1  0
  5  6  2  0
  5  7  1  0
  7  8  1  0
  8  9  1  0
  9 10  1  0
  7 11  1  0
 11 12  2  0
M  END
> <name>
NCI_AOD5_2014

> <id>
2626

> <plate>
NCI_V5_A

> <well>
H05

> <supplier_cmpd_name>
Carmustine

> <ctcr_id>
4602

> <supplier_cmpd_id>
409962

> <smiles>
ClCCNC(=O)N(CCCl)N=O

> <pd_targets>
{GSR,PMP22,KMT2A,MEN1,ABCB11,HTT,TSHR,ALDH1A1,BLM,RORC,NFO}

> <pathway_gtopdb>
{Enzyme,"Unclassified protein","Epigenetic regulator",Transporter,"Membrane receptor","Transcription factor",Oxidoreductase,Reader,"Primary active transporter","Family A G protein-coupled receptor","N
uclear receptor",Hydrolase,Bromodomain,"ATP-binding cassette","Peptide receptor (family A GPCR)","Nuclear hormone receptor subfamily 1","ABCB subfamily","Glycohormone receptor","Nuclear hormone recept
or subfamily 1 group F","Nuclear hormone receptor subfamily 1 group F member 3"}

> <pathway_chembl>
{Enzymes,Transporters,Receptors,"1.-.-.- Oxidoreductases","ATP-binding cassette transporter family","G protein-coupled receptors","Nuclear hormone receptors","ABCB subfamily","Glycoprotein hormone rec
eptors","1F. Retinoic acid-related orphans"}

> <pathway_reactome>
{"Gene expression (Transcription)","Developmental Biology",Metabolism,Disease,"DNA Repair","RNA Polymerase II Transcription","Nervous system development","Metabolism of lipids","Infectious disease","B
iological oxidations","DNA Double-Strand Break Repair","Generic Transcription Pathway","EGR2 and SOX10-mediated initiation of Schwann cell myelination","Metabolism of steroids","Leishmania infection",
"Phase I - Functionalization of compounds","Homology Directed Repair","Transcriptional Regulation by TP53","Bile acid and bile salt metabolism","Transcriptional Regulation by MECP2","Leishmania parasi
te growth and survival","Ethanol oxidation","HDR through Homologous Recombination (HRR) or Single Strand Annealing (SSA)","Transcriptional regulation by RUNX3","TP53 Regulates Metabolic Genes","Synthe
sis of bile acids and bile salts","Regulation of MECP2 expression and activity","Anti-inflammatory response favouring Leishmania parasite infection","HDR through Homologous Recombination (HRR)","RUNX3
 Regulates Immune Response and Cell Migration","Synthesis of bile acids and bile salts via 7alpha-hydroxycholesterol","ADORA2B mediated anti-inflammatory cytokines production","Homologous DNA Pairing 
and Strand Exchange","Presynaptic phase of homologous DNA pairing and strand exchange"}

> <broad_targets>
.

> <broad_moa>
.

> <synonyms>
{Becenun,U68WG3173Y,MFCD00057706,carmustine,154-93-8,154938,"1,3-Bis(2-chloroethyl)-1-nitrosourea","1,3Bis(2chloroethyl)1nitrosourea",BCNU,Carmustin,Gliadel,Nitrumon,Carmubris,BiCNU,"Bi CNU",Carmustin
um,"Bischloroethyl nitrosourea",Bischlorethylnitrosurea,N,N'-BIS(2-CHLOROETHYL)-N-NITR,N'BIS(2CHLOROETHYL)NNITR,T3091,409962,1503110,"NSC 409962",Carmustine,CARMUSTINE}

> <pdid>
PD002792

> <targets>
{}

> <classes>
{antineoplastic,"alkylating agent","Alkylating agent"}

> <pubchem_cids>
{2578}

$$$$
NCI_AOD5_2014
  SciTegic11012412592D

 76 83  0  0  1  0            999 V2000
    3.9075   -3.7444    0.0000 C   0  0
    2.6060   -2.9986    0.0000 O   0  0
    2.6003   -1.4977    0.0000 C   0  0  1  0  0  0
    1.2990   -0.7500    0.0000 C   0  0  2  0  0  0
    1.2990    0.7500    0.0000 C   0  0
    0.0000    1.5000    0.0000 C   0  0
    0.0000    3.0000    0.0000 C   0  0
   -1.2991    3.7500    0.0000 C   0  0
   -1.2991    5.2500    0.0000 C   0  0
   -2.5981    6.0000    0.0000 C   0  0
   -2.5951    7.5008    0.0000 O   0  0
   -1.2942    8.2494    0.0000 C   0  0
   -1.2890    9.7494    0.0000 C   0  0
    0.0126   10.4949    0.0000 C   0  0
    0.0147   11.9958    0.0000 O   0  0
   -1.2835   12.7488    0.0000 C   0  0
   -1.2836   14.2488    0.0000 C   0  0
   -2.5827   14.9988    0.0000 C   0  0
   -2.5827   16.4988    0.0000 O   0  0
   -3.8817   14.2488    0.0000 C   0  0
   -5.1807   14.9988    0.0000 O   0  0
   -3.8817   12.7488    0.0000 C   0  0
   -5.1807   11.9988    0.0000 C   0  0
   -2.5826   11.9988    0.0000 O   0  0
    1.3091    9.7405    0.0000 C   0  0
    2.6107   10.4860    0.0000 O   0  0
    1.3039    8.2405    0.0000 C   0  0
    2.6004    7.4860    0.0000 C   0  0
    0.0023    7.4949    0.0000 O   0  0
   -3.8972    5.2500    0.0000 C   0  0
   -5.1962    6.0000    0.0000 C   0  0
   -3.8971    3.7500    0.0000 C   0  0
   -5.1962    3.0000    0.0000 O   0  0
   -2.5981    3.0000    0.0000 C   0  0
   -2.5981    1.5000    0.0000 C   0  0
   -3.8971    0.7500    0.0000 O   0  0
   -1.2990    0.7500    0.0000 C   0  0
   -1.2990   -0.7500    0.0000 C   0  0
   -2.5981   -1.5000    0.0000 O   0  0
    0.0000   -1.5000    0.0000 C   0  0  1  0  0  0
   -0.0031   -3.0008    0.0000 O   0  0
   -1.3039   -3.7494    0.0000 C   0  0
   -1.3092   -5.2494    0.0000 C   0  0
   -2.6108   -5.9949    0.0000 C   0  0
   -2.6129   -7.4958    0.0000 O   0  0
   -1.3147   -8.2488    0.0000 C   0  0
   -1.3146   -9.7488    0.0000 C   0  0
   -0.0155  -10.4988    0.0000 C   0  0
   -0.0186  -11.9997    0.0000 O   0  0
   -1.3194  -12.7482    0.0000 C   0  0
   -1.3247  -14.2483    0.0000 C   0  0
   -2.6263  -14.9938    0.0000 C   0  0
   -3.9452  -15.7083    0.0000 C   0  0
   -1.3125  -15.7176    0.0000 O   0  0
   -3.9228  -14.2393    0.0000 C   0  0
   -5.2244  -14.9848    0.0000 O   0  0
   -3.9176  -12.7393    0.0000 C   0  0
   -5.2140  -11.9848    0.0000 C   0  0
   -2.6160  -11.9938    0.0000 O   0  0
    1.2835   -9.7488    0.0000 C   0  0
    2.5825  -10.4988    0.0000 O   0  0
    1.2835   -8.2488    0.0000 C   0  0
    2.5825   -7.4988    0.0000 C   0  0
   -0.0155   -7.4988    0.0000 O   0  0
   -3.9072   -5.2404    0.0000 C   0  0
   -5.2089   -5.9859    0.0000 O   0  0
   -3.9020   -3.7404    0.0000 C   0  0
   -5.1985   -2.9860    0.0000 C   0  0
   -2.6004   -2.9949    0.0000 O   0  0
    3.8990   -0.7455    0.0000 C   0  0
    3.8964    0.7545    0.0000 O   0  0
    5.2003   -1.4932    0.0000 C   0  0  1  0  0  0
    5.2029   -2.9932    0.0000 O   0  0
    6.4990   -0.7409    0.0000 C   0  0  1  0  0  0
    6.4964    0.7591    0.0000 C   0  0
    7.7996   -1.4883    0.0000 O   0  0
  1  2  1  0
  3  2  1  1
  3  4  1  0
  4  5  1  1
  5  6  1  0
  6  7  2  0
  7  8  1  0
  8  9  2  0
  9 10  1  0
 10 11  1  0
 11 12  1  0
 12 13  1  0
 13 14  1  0
 14 15  1  0
 15 16  1  0
 16 17  1  0
 17 18  1  0
 18 19  1  0
 18 20  1  0
 20 21  1  0
 20 22  1  0
 22 23  1  0
 22 24  1  0
 24 16  1  0
 14 25  1  0
 25 26  1  0
 25 27  1  0
 27 28  1  0
 27 29  1  0
 29 12  1  0
 10 30  2  0
 30 31  1  0
 30 32  1  0
 32 33  1  0
 32 34  2  0
 34  8  1  0
 34 35  1  0
 35 36  1  0
 35 37  2  0
 37  6  1  0
 37 38  1  0
 38 39  2  0
 38 40  1  0
 40  4  1  0
 40 41  1  6
 41 42  1  0
 42 43  1  0
 43 44  1  0
 44 45  1  0
 45 46  1  0
 46 47  1  0
 47 48  1  0
 48 49  1  0
 49 50  1  0
 50 51  1  0
 51 52  1  0
 52 53  1  0
 52 54  1  0
 52 55  1  0
 55 56  1  0
 55 57  1  0
 57 58  1  0
 57 59  1  0
 59 50  1  0
 48 60  1  0
 60 61  1  0
 60 62  1  0
 62 63  1  0
 62 64  1  0
 64 46  1  0
 44 65  1  0
 65 66  1  0
 65 67  1  0
 67 68  1  0
 67 69  1  0
 69 42  1  0
  3 70  1  0
 70 71  2  0
 70 72  1  0
 72 73  1  6
 72 74  1  0
 74 75  1  1
 74 76  1  0
M  END
> <name>
NCI_AOD5_2014

> <id>
2627

> <plate>
NCI_V5_A

> <well>
H06

> <supplier_cmpd_name>
Plicamycin

> <ctcr_id>
71

> <supplier_cmpd_id>
24559

> <smiles>
CO[C@@H]([C@@H]1Cc2cc3cc(OC4CC(OC5CC(O)C(O)C(C)O5)C(O)C(C)O4)c(C)c(O)c3c(O)c2C(=O)[C@H]1OC6CC(OC7CC(OC8CC(C)(O)C(O)C(C)O8)C(O)C(C)O7)C(O)C(C)O6)C(=O)[C@@H](O)[C@@H](C)O

> <pd_targets>
{NR1I2}

> <pathway_gtopdb>
{"Transcription factor","Nuclear receptor","Nuclear hormone receptor subfamily 1","Nuclear hormone receptor subfamily 1 group I","Nuclear hormone receptor subfamily 1 group I member 2"}

> <pathway_chembl>
{Receptors,"Nuclear hormone receptors","1I. Vitamin D receptor-like receptors"}

> <pathway_reactome>
{"Metabolism of proteins","Post-translational protein modification",SUMOylation,"SUMO E3 ligases SUMOylate target proteins","SUMOylation of intracellular receptors"}

> <broad_targets>
{}

> <broad_moa>
{"alcohol dehydrogenase inhibitor"}

> <synonyms>
{plicamycin,Mitramycin,"mithramycin a","Aureolic acid","Aurelic acid","Antibiotic LA 7017",18378-89-7,18378897,A-2371,A2371,NSC24559,PA-144,PA144,"MTM A",CHEMBL413720,SCHEMBL14066059,NSC760145,AKOS030
213136,CCG-208236,CCG208236,EC-7071,EC7071,NSC-760145,NCGC00160390-01,NCGC0016039001,NCI60_004287,NCI60004287,NCI60-004287,"NCI60 004287",24559,"NSC 24559",Plicamycin}

> <pdid>
PD004081

> <targets>
{Antibiotic,Bacterial,DNA/RNA Synthesis}

> <classes>
{Nucleic Acid Synthesis Inhibitors,Anti-infection,Cell Cycle/DNA Damage}

> <pubchem_cids>
{6326719}

$$$$
NCI_AOD5_2014
  SciTegic11012412592D

 18 19  0  0  0  0            999 V2000
    5.1965   -1.5117    0.0000 Cl  0  0
    3.8999   -0.7576    0.0000 C   0  0
    3.9051    0.7424    0.0000 Cl  0  0
    2.5973   -1.5031    0.0000 C   0  0
    1.2990   -0.7500    0.0000 C   0  0
    1.2990    0.7500    0.0000 C   0  0
    0.0000    1.5000    0.0000 C   0  0
   -1.2990    0.7500    0.0000 C   0  0
   -2.5981    1.5000    0.0000 Cl  0  0
   -1.2990   -0.7500    0.0000 C   0  0
    0.0000   -1.5000    0.0000 C   0  0
    2.5951   -3.0039    0.0000 C   0  0
    1.2935   -3.7495    0.0000 C   0  0
    1.2883   -5.2495    0.0000 C   0  0
    2.5847   -6.0040    0.0000 C   0  0
    3.8864   -5.2585    0.0000 C   0  0
    3.8915   -3.7585    0.0000 C   0  0
    5.1932   -3.0130    0.0000 Cl  0  0
  1  2  1  0
  2  3  1  0
  2  4  1  0
  4  5  1  0
  5  6  2  0
  6  7  1  0
  7  8  2  0
  8  9  1  0
  8 10  1  0
 10 11  2  0
 11  5  1  0
  4 12  1  0
 12 13  2  0
 13 14  1  0
 14 15  2  0
 15 16  1  0
 16 17  2  0
 17 12  1  0
 17 18  1  0
M  END
> <name>
NCI_AOD5_2014

> <id>
2628

> <plate>
NCI_V5_A

> <well>
H07

> <supplier_cmpd_name>
Mitotane

> <ctcr_id>
3465

> <supplier_cmpd_id>
38721

> <smiles>
ClC(Cl)C(c1ccc(Cl)cc1)c2ccccc2Cl

> <pd_targets>
{BLM,CYP3A4,TSHR,LEF,LMNA,ATM,TDP1,CHRM1,KDM4E,HIF1A,MAPT,ADORA3,HTR2B,HTR6,ADRA2A,SLC6A2,SLC6A3,SLC6A4,CYP11A1,CYP11B1,AR,CYP2C9,CYP2C19}

> <pathway_gtopdb>
{Enzyme,"Membrane receptor","Other nuclear protein","Epigenetic regulator","Transcription factor","Other cytosolic protein",Transporter,"Cytochrome P450","Family A G protein-coupled receptor",Protease
,Kinase,Hydrolase,Eraser,"Electrochemical transporter","Nuclear receptor","Cytochrome P450 family 3","Peptide receptor (family A GPCR)","Metallo protease","Protein Kinase","Small molecule receptor (fa
mily A GPCR)","Lysine demethylase","SLC superfamily of solute carriers","Cytochrome P450 family 11","Nuclear hormone receptor subfamily 3","Cytochrome P450 family 3A","Glycohormone receptor","Metallo 
protease MAE clan","Atypical protein kinase group","Monoamine receptor","Jumonji domain-containing","Nucleotide-like receptor (family A GPCR)","SLC06 neurotransmitter transporter family","Cytochrome P
450 family 11A","Cytochrome P450 family 11B","Nuclear hormone receptor subfamily 3 group C","Cytochrome P450 3A4","Metallo protease M34 family","Atypical protein kinase PIKK family","Acetylcholine rec
eptor","Adenosine receptor","Serotonin receptor","Adrenergic receptor","Cytochrome P450 11A1","Cytochrome P450 11B1","Nuclear hormone receptor subfamily 3 group C member 4","Cytochrome P450 family 2",
"Cytochrome P450 family 2C","Cytochrome P450 2C9","Cytochrome P450 2C19"}

> <pathway_chembl>
{Enzymes,Receptors,Transporters,"Cytochrome P450","G protein-coupled receptors","Kinases (EC 2.7.x.x)","Chromatin modifying enzymes","SLC superfamily of solute carriers","Nuclear hormone receptors","C
YP3 family","Glycoprotein hormone receptors",Atypical,"Acetylcholine receptors (muscarinic)","1.14.11.- Histone demethylases","Adenosine receptors","5-Hydroxytryptamine receptors",Adrenoceptors,"SLC6 
neurotransmitter transporter family",CYP11,CYP17,CYP19,"CYP20 and CYP21 families","Steroid hormone receptors","Phosphatidyl inositol 3' kinase-related kinases (PIKK) family","Monoamine transporter sub
family","3C. 3-Ketosteroid receptors","Other PIKK family kinases","CYP2 family: drug metabolising subset"}

> <pathway_reactome>
{"DNA Repair",Metabolism,Disease,"Cell Cycle","Signal Transduction","Cellular responses to external stimuli","Neuronal System","Gene expression (Transcription)","DNA Double-Strand Break Repair","Metab
olism of lipids","Infectious disease",Mitotic,"Cell Cycle Checkpoints","Signaling by GPCR","Cellular responses to stress","Transmission across Chemical Synapses","Disorders of transmembrane transporte
rs","Biological oxidations","RNA Polymerase II Transcription","Homology Directed Repair","Biosynthesis of specialized proresolving mediators (SPMs)","Leishmania infection","Uptake and actions of bacte
rial toxins","M Phase","G1/S DNA Damage Checkpoints","Nonhomologous End-Joining (NHEJ)","GPCR ligand binding","Cellular response to hypoxia","Neurotransmitter receptors and postsynaptic signal transmi
ssion","SLC transporter disorders","Neurotransmitter clearance","Phase I - Functionalization of compounds","Generic Transcription Pathway","HDR through Homologous Recombination (HRR) or Single Strand 
Annealing (SSA)","Biosynthesis of DHA-derived SPMs","Leishmania parasite growth and survival","Uptake and function of anthrax toxins","Mitotic Metaphase and Anaphase","p53-Dependent G1/S DNA damage ch
eckpoint","Class A/1 (Rhodopsin-like receptors)","Oxygen-dependent proline hydroxylation of Hypoxia-inducible Factor Alpha","Activation of NMDA receptors and postsynaptic events","Defective SLC6A2 cau
ses orthostatic intolerance (OI)","Defective SLC6A3 causes Parkinsonism-dystonia infantile (PKDYS)","Serotonin clearance from the synaptic cleft","Cytochrome P450 - arranged by substrate type","Transc
riptional regulation by RUNX2","HDR through Homologous Recombination (HRR)","Biosynthesis of maresins","Anti-inflammatory response favouring Leishmania parasite infection","Mitotic Anaphase","p53-Depe
ndent G1 DNA Damage Response","Amine ligand-binding receptors","Post NMDA receptor activation events","Nucleotide-like (purinergic) receptors","Endogenous sterols","RUNX2 regulates bone development","
Homologous DNA Pairing and Strand Exchange","Biosynthesis of maresin-like SPMs","ADORA2B mediated anti-inflammatory cytokines production","Nuclear Envelope (NE) Reassembly","Stabilization of p53","Mus
carinic acetylcholine receptors","Activation of AMPK downstream of NMDARs","Adenosine P1 receptors","Serotonin receptors",Adrenoceptors,"RUNX2 regulates osteoblast differentiation","Presynaptic phase 
of homologous DNA pairing and strand exchange","Initiation of Nuclear Envelope (NE) Reformation","Autodegradation of the E3 ubiquitin ligase COP1",Xenobiotics,"CYP2E1 reactions"}

> <broad_targets>
{CYP11A1,CYP11B1,ESR1}

> <broad_moa>
{"antineoplastic agent"}

> <synonyms>
{NCGC00015226-03,NCGC0001522603,NCGC00015226-04,NCGC0001522604,mitotane,53-19-0,53190,Mitotan,Lysodren,"o,p'-DDD","o,p'DDD",Chloditan,Chlodithane,Khlodithan,Chlodithan,"1-(2-Chlorophenyl)-1-(4-chlorop
henyl)-2,2-dichloroethane","1(2Chlorophenyl)1(4chlorophenyl)2,2dichloroethane","2,4'-Ddd","2,4'Ddd",Mitotano,1-Chloro-2-(2,1Chloro2(2,2-dichloro-1-(4-chlorophenyl,2dichloro1(4chlorophenyl,T1199,38721,
NSC38721,330082,Prestw-1444,"NSC 38721
NSC 38721",Mitotane,MITOTANE}

> <pdid>
PD002550

> <targets>
{Apoptosis}

> <classes>
{Adrenal cytotoxic agent,antineoplastic,insecticide,Apoptosis}

> <pubchem_cids>
{4211}

$$$$
NCI_AOD5_2014
  SciTegic11012412592D

  5  4  0  0  0  0            999 V2000
    1.3000    2.2500    0.0000 N   0  0
    1.3000    0.7500    0.0000 C   0  0
    0.0007    0.0004    0.0000 O   0  0
    2.6000    0.0000    0.0000 N   0  0
    3.8993    0.7496    0.0000 O   0  0
  1  2  1  0
  2  3  2  0
  2  4  1  0
  4  5  1  0
M  END
> <name>
NCI_AOD5_2014

> <id>
2629

> <plate>
NCI_V5_A

> <well>
H08

> <supplier_cmpd_name>
Hydroxyurea

> <ctcr_id>
6915

> <supplier_cmpd_id>
32065

> <smiles>
NC(=O)NO

> <pd_targets>
{PMP22,BLM,CA2,LMNA,NFKB1,CYP3A4,CA9,CA5A,RRM2,RRM1,RRM2B}

> <pathway_gtopdb>
{"Unclassified protein",Enzyme,"Other nuclear protein","Other cytosolic protein",Lyase,"Cytochrome P450",Oxidoreductase,"Cytochrome P450 family 3","Cytochrome P450 family 3A","Cytochrome P450 3A4"}

> <pathway_chembl>
{Enzymes,"Carbonic anhydrases","Cytochrome P450","1.17.4.1 Ribonucleoside-diphosphate reductases","CYP3 family"}

> <pathway_reactome>
{"Developmental Biology","DNA Repair","Transport of small molecules","Cell Cycle","Immune System",Metabolism,"Cellular responses to external stimuli","Nervous system development","DNA Double-Strand Br
eak Repair","O2/CO2 exchange in erythrocytes",Mitotic,"Cytokine Signaling in Immune system","Metabolism of lipids","Cellular responses to stress","Reversible hydration of carbon dioxide","Metabolism o
f nucleotides","EGR2 and SOX10-mediated initiation of Schwann cell myelination","Homology Directed Repair","Erythrocytes take up carbon dioxide and release oxygen","M Phase","Signaling by Interleukins
","Biosynthesis of specialized proresolving mediators (SPMs)","Cellular response to hypoxia","Mitotic G1 phase and G1/S transition","Interconversion of nucleotide di- and triphosphates","HDR through H
omologous Recombination (HRR) or Single Strand Annealing (SSA)","Mitotic Metaphase and Anaphase","Interleukin-1 family signaling","Biosynthesis of DHA-derived SPMs","Regulation of gene expression by H
ypoxia-inducible Factor","G1/S Transition","HDR through Homologous Recombination (HRR)","Mitotic Anaphase","Interleukin-1 signaling","Biosynthesis of maresins","G1/S-Specific Transcription","Homologou
s DNA Pairing and Strand Exchange","Nuclear Envelope (NE) Reassembly","MAP3K8 (TPL2)-dependent MAPK1/3 activation","Biosynthesis of maresin-like SPMs","Presynaptic phase of homologous DNA pairing and 
strand exchange","Initiation of Nuclear Envelope (NE) Reformation"}

> <broad_targets>
{RRM1,RRM2,RRM2B}

> <broad_moa>
{"ribonucleotide reductase inhibitor"}

> <synonyms>
{Hydroxycarbamide,127-07-1,127071,"127 07 1",N-Hydroxyurea,NHydroxyurea,"N Hydroxyurea",Hydrea,1-HYDROXYUREA,1HYDROXYUREA,"1 HYDROXYUREA",Oxyurea,"Carbamoyl oxime",Biosupressin,Hydroxycarbamine,"Urea,
 hydroxy-","Urea, hydroxy",Onco-carbide,Oncocarbide,"Onco carbide","Carbamohydroxamic acid","Carbamohydroximic acid","Carbamyl hydroxamate",Hydura,Litalir,T0676,32065,NSC32065,1500344,"NSC 32065
NSC 32065",Hydroxyurea,HYDROXYUREA}

> <pdid>
PD002298

> <targets>
{Apoptosis,Autophagy,DNA/RNA Synthesis,HIV}

> <classes>
{antineoplastic,inhibits ribonucleoside diphosphate reductase,Ribonucleoside diphosphate reductase inhibitor,Anti-infection,Apoptosis,Autophagy,Cell Cycle/DNA Damage}

> <pubchem_cids>
{3657}

$$$$
NCI_AOD5_2014
  SciTegic11012412592D

 19 20  0  0  1  0            999 V2000
    1.2948   -3.7516    0.0000 C   0  0
    2.5951   -3.0039    0.0000 C   0  0  1  0  0  0
    2.5973   -1.5031    0.0000 C   0  0
    1.2990   -0.7500    0.0000 N   0  0
    1.2990    0.7500    0.0000 C   0  0
    0.0000    1.5000    0.0000 C   0  0
    0.0000    3.0000    0.0000 O   0  0
   -1.2990    0.7500    0.0000 N   0  0
   -1.2990   -0.7500    0.0000 C   0  0
   -2.5981   -1.5000    0.0000 O   0  0
    0.0000   -1.5000    0.0000 C   0  0
    3.8933   -3.7570    0.0000 N   0  0
    5.1950   -3.0115    0.0000 C   0  0
    6.4915   -3.7659    0.0000 C   0  0
    7.7931   -3.0204    0.0000 O   0  0
    6.4864   -5.2659    0.0000 N   0  0
    5.1848   -6.0115    0.0000 C   0  0
    5.1797   -7.5115    0.0000 O   0  0
    3.8883   -5.2570    0.0000 C   0  0
  2  1  1  1
  2  3  1  0
  3  4  1  0
  4  5  1  0
  5  6  1  0
  6  7  2  0
  6  8  1  0
  8  9  1  0
  9 10  2  0
  9 11  1  0
 11  4  1  0
  2 12  1  0
 12 13  1  0
 13 14  1  0
 14 15  2  0
 14 16  1  0
 16 17  1  0
 17 18  2  0
 17 19  1  0
 19 12  1  0
M  END
> <name>
NCI_AOD5_2014

> <id>
2630

> <plate>
NCI_V5_A

> <well>
H09

> <supplier_cmpd_name>
Dexrazoxane

> <ctcr_id>
3286

> <supplier_cmpd_id>
169780

> <smiles>
C[C@@H](CN1CC(=O)NC(=O)C1)N2CC(=O)NC(=O)C2

> <pd_targets>
{TOP2A,REP,LMNA}

> <pathway_gtopdb>
{Enzyme,Isomerase,"Other nuclear protein",Transferase}

> <pathway_chembl>
{Enzymes,"DNA topoisomerases","Other protein targets","Anti-infective targets","Viral protein targets","Coronavirus (CoV) proteins"}

> <pathway_reactome>
{"Cell Cycle",Mitotic,"Mitotic G1 phase and G1/S transition","G0 and Early G1","Transcription of E2F targets under negative control by DREAM complex",Disease,"Infectious disease","SARS-CoV Infections"
,"M Phase","SARS-CoV-2 Infection","Mitotic Metaphase and Anaphase","SARS-CoV-2 Genome Replication and Transcription","Mitotic Anaphase","Replication of the SARS-CoV-2 genome","Nuclear Envelope (NE) Re
assembly","Initiation of Nuclear Envelope (NE) Reformation"}

> <broad_targets>
{TOP2A,TOP2B}

> <broad_moa>
{"chelating agent","topoisomerase inhibitor"}

> <synonyms>
{Dexrazoxane,24584-09-6,24584096,Zinecard,"(S)-4,4'-(Propane-1,2-diyl)bis(piperazine-2,6-dione)","(S)4,4'(Propane1,2diyl)bis(piperazine2,6dione)",Cardioxane,ICRF-187,ICRF187,Dextrorazoxane,Dexrazoxanu
m,Dexrazoxano,"Dexrazoxanum (INN-Latin)","Dexrazoxanum (INNLatin)","Dexrazoxano (INN-Spanish)","Dexrazoxano (INNSpanish)","ADR 529","ICRF 187",ADR-529,ADR529,(+)-(S)-4,(+)(S)4,4,169780,"NSC 169780"}

> <pdid>
PD000493

> <targets>
{Others}

> <classes>
{Topoisomerase II Inhibitors,Others}

> <pubchem_cids>
{71384}

$$$$
NCI_AOD5_2014
  SciTegic11012412592D

 38 40  0  0  1  0            999 V2000
   12.7994   -2.2704    0.0000 Cl  0  5
    5.1852    3.0091    0.0000 C   0  0
    5.1903    1.5091    0.0000 C   0  0  2  0  0  0
    3.8939    0.7546    0.0000 O   0  0
    3.8990   -0.7455    0.0000 C   0  0  2  0  0  0
    5.2007   -1.4909    0.0000 C   0  0
    6.4972   -0.7364    0.0000 C   0  0  2  0  0  0
    7.7988   -1.4819    0.0000 N   0  0
    6.4920    0.7636    0.0000 C   0  0  2  0  0  0
    7.7884    1.5180    0.0000 O   0  0
    2.6003   -1.4977    0.0000 O   0  0
    1.2990   -0.7500    0.0000 C   0  0  1  0  0  0
    1.2990    0.7500    0.0000 C   0  0
    0.0000    1.5000    0.0000 C   0  0  1  0  0  0
    1.3170    2.2180    0.0000 O   0  0
   -1.2990    0.7500    0.0000 C   0  0
   -1.2990   -0.7500    0.0000 C   0  0
   -2.5981   -1.5000    0.0000 C   0  0
   -3.8971   -0.7500    0.0000 O   0  0
   -2.5981   -3.0000    0.0000 C   0  0
   -3.8971   -3.7500    0.0000 C   0  0
   -5.1961   -3.0000    0.0000 O   0  0
   -3.8971   -5.2500    0.0000 C   0  0
   -5.1961   -6.0000    0.0000 C   0  0
   -5.1961   -7.5000    0.0000 C   0  0
   -3.8971   -8.2500    0.0000 C   0  0
   -2.5980   -7.5000    0.0000 C   0  0
   -2.5980   -6.0000    0.0000 C   0  0
   -1.2990   -5.2500    0.0000 C   0  0
    0.0000   -6.0000    0.0000 O   0  0
   -1.2990   -3.7500    0.0000 C   0  0
    0.0000   -3.0000    0.0000 C   0  0
    1.2991   -3.7500    0.0000 O   0  0
    0.0000   -1.5000    0.0000 C   0  0
   -1.2999    2.2084    0.0000 C   0  0
   -1.2998    3.7084    0.0000 C   0  0
   -2.5993    1.4590    0.0000 O   0  0
   10.2994   -2.2704    0.0000 H   0  3
  3  2  1  1
  3  4  1  0
  4  5  1  0
  5  6  1  0
  6  7  1  0
  7  8  1  1
  7  9  1  0
  9  3  1  0
  9 10  1  1
  5 11  1  6
 12 11  1  6
 12 13  1  0
 13 14  1  0
 14 15  1  6
 14 16  1  0
 16 17  1  0
 17 18  2  0
 18 19  1  0
 18 20  1  0
 20 21  1  0
 21 22  2  0
 21 23  1  0
 23 24  2  0
 24 25  1  0
 25 26  2  0
 26 27  1  0
 27 28  2  0
 28 23  1  0
 28 29  1  0
 29 30  2  0
 29 31  1  0
 31 20  2  0
 31 32  1  0
 32 33  1  0
 32 34  2  0
 34 12  1  0
 34 17  1  0
 14 35  1  0
 35 36  1  0
 35 37  2  0
M  CHG  2   1  -1  38   1
M  END
> <name>
NCI_AOD5_2014

> <id>
2631

> <plate>
NCI_V5_A

> <well>
H10

> <supplier_cmpd_name>
Idarubicin hydrochloride

> <ctcr_id>
2024

> <supplier_cmpd_id>
Idarubicin hydrochloride

> <smiles>
[Cl-].C[C@@H]1O[C@H](C[C@H](N)[C@@H]1O)O[C@H]2C[C@@](O)(Cc3c(O)c4C(=O)c5ccccc5C(=O)c4c(O)c23)C(C)=O.[H+]

> <pd_targets>
{PMP22,SKA,THRB,RECQL,KMT2A,MEN1,KDM4E,BLM,HSF1,ALDH1A1,LMNA,NFO,MAPT,USP2,APEX1,RORC,POLB,HTT,MAPK1,MTOR,TOP2A,CHRM1,HBB,DAF-12,GNAI1,RGS12,STAT6,BRCA1,CYP1A2,HIF1A,ALOX15,TP53,THPO,CYP3A4,NFKB1,TSHR
,NR1H2,S100A4,PAX8}

> <pathway_gtopdb>
{"Unclassified protein",Enzyme,"Transcription factor","Epigenetic regulator","Other cytosolic protein","Other nuclear protein",Kinase,"Nuclear receptor",Reader,Eraser,Oxidoreductase,Hydrolase,Protease
,Isomerase,"Nuclear hormone receptor subfamily 1",Bromodomain,"Lysine demethylase","Cysteine protease","Protein Kinase","Nuclear hormone receptor subfamily 1 group A","Jumonji domain-containing","Cyst
eine protease CA clan","Nuclear hormone receptor subfamily 1 group F","CMGC protein kinase group","Atypical protein kinase group","Nuclear hormone receptor subfamily 1 group A member 2","Cysteine prot
ease C19 family","Nuclear hormone receptor subfamily 1 group F member 3","CMGC protein kinase MAPK family","Atypical protein kinase PIKK family","CMGC protein kinase ERK1","Atypical protein kinase FRA
P subfamily","Membrane receptor","Secreted protein","Family A G protein-coupled receptor","Cytochrome P450","Small molecule receptor (family A GPCR)","Cytochrome P450 family 1","Cytochrome P450 family
 3","Peptide receptor (family A GPCR)","Monoamine receptor","Cytochrome P450 family 1A","Cytochrome P450 family 3A","Glycohormone receptor","Nuclear hormone receptor subfamily 1 group H","Acetylcholin
e receptor","Cytochrome P450 1A1","Cytochrome P450 3A4","Nuclear hormone receptor subfamily 1 group H member 3"}

> <pathway_chembl>
{Receptors,Enzymes,"Nuclear hormone receptors","Chromatin modifying enzymes","Peptidases and proteinases","Kinases (EC 2.7.x.x)","DNA topoisomerases","1A. Thyroid hormone receptors","1.14.11.- Histone
 demethylases","CA: Cysteine (C) Peptidases","2.1.1.43 Histone methyltransferases (HMTs)","1F. Retinoic acid-related orphans","CMGC: Containing CDK",MAPK,GSK3,"CLK families",Atypical,"C19: Ubiquitin-s
pecific protease","Mitogen-activated protein kinases (MAP kinases)","Phosphatidyl inositol 3' kinase-related kinases (PIKK) family","ERK subfamily","FRAP subfamily","Other protein targets","G protein-
coupled receptors","Transcription factors","Cytochrome P450","Eicosanoid turnover","Acetylcholine receptors (muscarinic)","STAT transcription factors","CYP1 family",Lipoxygenases,"CYP3 family","Glycop
rotein hormone receptors","1H. Liver X receptor-like receptors"}

> <pathway_reactome>
{"Developmental Biology","Metabolism of proteins","DNA Repair","Cellular responses to external stimuli",Metabolism,"Cell Cycle","Neuronal System","Gene expression (Transcription)","Immune System","Ner
vous system development","Post-translational protein modification","DNA Double-Strand Break Repair","Cellular responses to stress","Biological oxidations",Mitotic,"Transmission across Chemical Synapse
s","RNA Polymerase II Transcription","Base Excision Repair","Innate Immune System","EGR2 and SOX10-mediated initiation of Schwann cell myelination",SUMOylation,"Homology Directed Repair","Cellular res
ponse to heat stress","Phase I - Functionalization of compounds","M Phase","Neurotransmitter receptors and postsynaptic signal transmission","Generic Transcription Pathway","Resolution of Abasic Sites
 (AP sites)","Toll-like Receptor Cascades","Mitotic G1 phase and G1/S transition","SUMO E3 ligases SUMOylate target proteins","HDR through Homologous Recombination (HRR) or Single Strand Annealing (SS
A)","HSF1-dependent transactivation","Ethanol oxidation","Mitotic Metaphase and Anaphase","Activation of NMDA receptors and postsynaptic events","Transcriptional Regulation by TP53","Transcriptional r
egulation by RUNX1","Resolution of AP sites via the multiple-nucleotide patch replacement pathway","Transcriptional regulation by RUNX3","Transcriptional Regulation by MECP2","Toll Like Receptor 5 (TL
R5) Cascade","G0 and Early G1","SUMOylation of intracellular receptors","HDR through Homologous Recombination (HRR)","Attenuation phase","Mitotic Anaphase","Post NMDA receptor activation events","Regu
lation of TP53 Activity","RUNX1 regulates genes involved in megakaryocyte differentiation and platelet function","PCNA-Dependent Long Patch Base Excision Repair","RUNX3 Regulates Immune Response and C
ell Migration","Regulation of MECP2 expression and activity","MyD88 cascade initiated on plasma membrane","Transcription of E2F targets under negative control by DREAM complex","Homologous DNA Pairing
 and Strand Exchange","Nuclear Envelope (NE) Reassembly","Activation of AMPK downstream of NMDARs","Regulation of TP53 Expression and Degradation","MAP kinase activation","Presynaptic phase of homolog
ous DNA pairing and strand exchange","Initiation of Nuclear Envelope (NE) Reformation","Regulation of TP53 Degradation","MAPK targets/ Nuclear events mediated by MAP kinases","ERK/MAPK targets","ERKs 
are inactivated","Signal Transduction",Hemostasis,Disease,"Signaling by GPCR","Metabolism of lipids","Cell Cycle Checkpoints","Platelet activation","signaling and aggregation","Cytokine Signaling in I
mmune system","Infectious disease","GPCR ligand binding","Neutrophil degranulation","Cytosolic sensors of pathogen-associated DNA","Cellular response to hypoxia","Biosynthesis of specialized proresolv
ing mediators (SPMs)","G1/S DNA Damage Checkpoints","Platelet Aggregation (Plug Formation)","Signaling by Interleukins","Leishmania infection","Class A/1 (Rhodopsin-like receptors)","STING mediated in
duction of host immune responses","Cytochrome P450 - arranged by substrate type","Oxygen-dependent proline hydroxylation of Hypoxia-inducible Factor Alpha","Biosynthesis of DPA-derived SPMs","p53-Depe
ndent G1/S DNA damage checkpoint","Biosynthesis of DHA-derived SPMs","Interleukin-1 family signaling","Leishmania parasite growth and survival","Amine ligand-binding receptors","STAT6-mediated inducti
on of chemokines",Xenobiotics,"Biosynthesis of DPAn-3 SPMs","p53-Dependent G1 DNA Damage Response","Biosynthesis of maresins","Interleukin-1 signaling","Anti-inflammatory response favouring Leishmania
 parasite infection","Muscarinic acetylcholine receptors","Aromatic amines can be N-hydroxylated or N-dealkylated by CYP1A2","Biosynthesis of DPAn-3-derived protectins and resolvins","Stabilization of
 p53","Biosynthesis of maresin-like SPMs","MAP3K8 (TPL2)-dependent MAPK1/3 activation","ADORA2B mediated anti-inflammatory cytokines production","Autodegradation of the E3 ubiquitin ligase COP1"}

> <broad_targets>
{TOP2A}

> <broad_moa>
{"topoisomerase inhibitor"}

> <synonyms>
{"idarubicin hydrochloride","Idarubicin Hcl",57852-57-0,57852570,"57852 57 0",Zavedos,Idamycin,"Idarubicin (hydrochloride)",UNII-5VV3MDU5IE,UNII5VV3MDU5IE,"UNII 5VV3MDU5IE","IMI 30",5VV3MDU5IE,Idarubi
cinhydrochloride,CPD000466355,IMI-30,IMI30,256439,"Idarubicin hydrochloride",SAM001246676}

> <pdid>
PD002710

> <targets>
{Antibiotic,Autophagy,Bacterial,Fungal,Topoisomerase}

> <classes>
{Topoisomerase II Inhibitors,Anti-infection,Autophagy,Cell Cycle/DNA Damage}

> <pubchem_cids>
{636362}

$$$$
NCI_AOD5_2014
  SciTegic11012412592D

 62 68  0  0  1  0            999 V2000
    2.3479   -2.2342    0.0000 C   0  0
    1.3857   -1.0835    0.0000 C   0  0
    1.9017    0.3250    0.0000 O   0  0
   -0.0927   -1.3420    0.0000 O   0  0
   -1.0600   -2.4900    0.0000 C   0  0  1  0  0  0
    0.2100   -3.2200    0.0000 C   0  0
    0.2075   -4.7200    0.0000 O   0  0
    1.4900   -2.4900    0.0000 C   0  0  2  0  0  0
    1.4875   -3.9900    0.0000 C   0  0
    2.7600   -3.2200    0.0000 C   0  0  1  0  0  0
    2.7575   -4.7200    0.0000 O   0  0
    4.0400   -2.4900    0.0000 C   0  0
    4.0400   -1.0400    0.0000 C   0  0  1  0  0  0
    4.7600    0.2300    0.0000 O   0  0
    3.4900    0.9500    0.0000 C   0  0
    2.7600   -0.3100    0.0000 C   0  0  2  0  0  0
    3.9139    0.6592    0.0000 O   0  0
    3.6492    2.1365    0.0000 C   0  0
    2.2381    2.6452    0.0000 C   0  0
    4.7950    3.1046    0.0000 O   0  0
    1.4900   -1.0400    0.0000 C   0  0  1  0  0  0
    0.2100   -0.3100    0.0000 C   0  0  2  0  0  0
    0.2081    1.1912    0.0000 O   0  0
    1.5064    1.9441    0.0000 C   0  0
    2.8067    1.1962    0.0000 O   0  0
    1.5045    3.4449    0.0000 C   0  0
    2.8011    4.1993    0.0000 C   0  0
    2.7961    5.6993    0.0000 C   0  0
    1.4946    6.4450    0.0000 C   0  0
    0.1980    5.6907    0.0000 C   0  0
    0.2030    4.1907    0.0000 C   0  0
   -1.0600   -1.0400    0.0000 C   0  0  2  0  0  0
   -1.0600    0.4600    0.0000 O   0  0
   -2.3300   -0.3100    0.0000 C   0  0
   -3.6100   -1.0400    0.0000 C   0  0  2  0  0  0
   -4.9097   -0.2889    0.0000 O   0  0
   -4.9103    1.2119    0.0000 C   0  0
   -3.6112    1.9619    0.0000 O   0  0
   -6.2098    1.9627    0.0000 C   0  0  2  0  0  0
   -7.5088    1.2126    0.0000 O   0  0
   -6.2103    3.4635    0.0000 C   0  0  1  0  0  0
   -7.5099    4.2143    0.0000 N   0  0
   -7.5104    5.7151    0.0000 C   0  0
   -6.2114    6.4651    0.0000 O   0  0
   -8.8099    6.4659    0.0000 C   0  0
   -8.8126    7.9659    0.0000 C   0  0
  -10.1130    8.7137    0.0000 C   0  0
  -11.4107    7.9614    0.0000 C   0  0
  -11.4081    6.4614    0.0000 C   0  0
  -10.1077    5.7137    0.0000 C   0  0
   -4.9107    4.2139    0.0000 C   0  0
   -4.9085    5.7140    0.0000 C   0  0
   -3.6085    6.4623    0.0000 C   0  0
   -2.3105    5.7105    0.0000 C   0  0
   -2.3125    4.2105    0.0000 C   0  0
   -3.6125    3.4623    0.0000 C   0  0
   -3.6100   -2.4900    0.0000 C   0  0
   -2.3300   -3.2200    0.0000 C   0  0
   -2.0200    0.2800    0.0000 C   0  0
   -0.9882    1.3687    0.0000 C   0  0
   -3.4648    0.6831    0.0000 C   0  0
   -4.9070   -3.2434    0.0000 C   0  0
  1  2  1  0
  2  3  2  0
  2  4  1  0
  5  4  1  1
  5  6  1  0
  6  7  2  0
  6  8  1  0
  8  9  1  6
  8 10  1  0
 10 11  1  6
 10 12  1  0
 13 12  1  6
 13 14  1  0
 14 15  1  0
 15 16  1  0
 16 13  1  0
 16 17  1  1
 17 18  1  0
 18 19  1  0
 18 20  2  0
 21 16  1  6
 21  8  1  0
 21 22  1  0
 22 23  1  1
 23 24  1  0
 24 25  2  0
 24 26  1  0
 26 27  2  0
 27 28  1  0
 28 29  2  0
 29 30  1  0
 30 31  2  0
 31 26  1  0
 22 32  1  0
 32 33  1  1
 32 34  1  0
 34 35  1  0
 35 36  1  1
 36 37  1  0
 37 38  2  0
 37 39  1  0
 39 40  1  6
 39 41  1  0
 41 42  1  1
 42 43  1  0
 43 44  2  0
 43 45  1  0
 45 46  2  0
 46 47  1  0
 47 48  2  0
 48 49  1  0
 49 50  2  0
 50 45  1  0
 41 51  1  0
 51 52  2  0
 52 53  1  0
 53 54  2  0
 54 55  1  0
 55 56  2  0
 56 51  1  0
 35 57  1  0
 57 58  2  3
 58  5  1  0
 58 59  1  0
 59 32  1  0
 59 60  1  0
 59 61  1  0
 57 62  1  0
M  END
> <name>
NCI_AOD5_2014

> <id>
2632

> <plate>
NCI_V5_A

> <well>
H11

> <supplier_cmpd_name>
Paclitaxel

> <ctcr_id>
5383

> <supplier_cmpd_id>
125973

> <smiles>
CC(=O)O[C@H]1C(=O)[C@]2(C)[C@@H](O)C[C@H]3OC[C@@]3(OC(C)=O)[C@H]2[C@H](OC(=O)c4ccccc4)[C@]5(O)C[C@H](OC(=O)[C@H](O)[C@@H](NC(=O)c6ccccc6)c7ccccc7)C(=C1C5(C)C)C

> <pd_targets>
{KMT2A,MEN1,LMNA,ITGAV,ITGB3,TUBB2B,RORC,FFP,SLCO1B3,SLCO1B1,MAPT,CYP3A4,TUBA1A,TUBA1B,TUBA1C,TUBA3C,TUBA3E,TUBA4A,TUBB,TUBB1,TUBB2A,TUBB3,TUBB4A,TUBB4B,TUBB6,TUBB8,PMP22,AMPC,THPO,NPSR1,BLM,ABCB11,TH
RB,HIF1A,MERTK,GROES,GROL,LEF,GMNN,CYP2C9,CCKAR,BOTA,RECQL,TUBB5,NR1I2,CYP1A2,MC5R,ERBB2,OPRD1,TACR2,MTOR,FYN,ABCB1,NOD2,TLR4,BCL2}

> <pathway_gtopdb>
{"Epigenetic regulator","Other nuclear protein","Membrane receptor","Structural protein",Enzyme,"Transcription factor",Transporter,"Other cytosolic protein","Unclassified protein","Ion channel",Reader
,Protease,"Nuclear receptor",Transferase,"Electrochemical transporter","Cytochrome P450",Hydrolase,"Family A G protein-coupled receptor","Primary active transporter",Kinase,"Other ion channel",Bromodo
main,"Cysteine protease","Nuclear hormone receptor subfamily 1","SLC superfamily of solute carriers","Cytochrome P450 family 3","Peptide receptor (family A GPCR)","ATP-binding cassette","Protein Kinas
e","Metallo protease","Cytochrome P450 family 2","Cytochrome P450 family 1","Miscellaneous ion channel","Cysteine protease CA clan","Nuclear hormone receptor subfamily 1 group F","SLC21/SLCO family of
 organic anion transporting polypeptides","Cytochrome P450 family 3A","Short peptide receptor (family A GPCR)","ABCB subfamily","Nuclear hormone receptor subfamily 1 group A","TK protein kinase group"
,"Metallo protease MAE clan","Cytochrome P450 family 2C","Nuclear hormone receptor subfamily 1 group I","Cytochrome P450 family 1A","Atypical protein kinase group","Bcl-2 family","Cysteine protease C1
A family","Nuclear hormone receptor subfamily 1 group F member 3","Cytochrome P450 3A4","Neuropeptide receptor","Nuclear hormone receptor subfamily 1 group A member 2","Tyrosine protein kinase Axl fam
ily","Metallo protease M34 family","Cytochrome P450 2C9","Cholecystokinin receptor","Metallo protease M27 family","Nuclear hormone receptor subfamily 1 group I member 2","Cytochrome P450 1A1","Melanoc
ortin receptor","Tyrosine protein kinase EGFR family","Opioid receptor","Neurokinin receptor","Atypical protein kinase PIKK family","Tyrosine protein kinase Src family","Atypical protein kinase FRAP s
ubfamily","Tyrosine protein kinase SrcA"}

> <pathway_chembl>
{Receptors,Transporters,Enzymes,"Other protein targets","Catalytic receptors","Nuclear hormone receptors","SLC superfamily of solute carriers","Cytochrome P450","G protein-coupled receptors","ATP-bind
ing cassette transporter family",Tubulins,"Kinases (EC 2.7.x.x)","B-cell lymphoma 2 (Bcl-2) protein family",Integrins,"1F. Retinoic acid-related orphans","SLCO family of organic anion transporting pol
ypeptides","CYP3 family","Neuropeptide S receptor","ABCB subfamily","1A. Thyroid hormone receptors","Receptor kinases","CYP2 family: drug metabolising subset","Cholecystokinin receptors","1I. Vitamin 
D receptor-like receptors","CYP1 family","Melanocortin receptors","Opioid receptors","Tachykinin receptors",Atypical,"Pattern recognition receptors","TK: Tyrosine kinase","Phosphatidyl inositol 3' kin
ase-related kinases (PIKK) family","NOD-like receptor family","Toll-like receptor family","Receptor tyrosine kinases (RTKs)","FRAP subfamily","Non-receptor tyrosine kinases (nRTKs)","Type XI RTKs: TAM
 (TYRO3-","AXL- and MER-TK) receptor family","Type I RTKs: ErbB (epidermal growth factor) receptor family","Src family"}

> <pathway_reactome>
{"Cell Cycle","Gene expression (Transcription)",Metabolism,"Neuronal System","Developmental Biology",Hemostasis,Disease,"DNA Repair","Metabolism of proteins","Cellular responses to external stimuli","
Signal Transduction","Immune System",Mitotic,"RNA Polymerase II Transcription","Metabolism of lipids","Transmission across Chemical Synapses","Nervous system development","Platelet activation","signal
ing and aggregation","Infectious disease","DNA Double-Strand Break Repair","Post-translational protein modification","Cellular responses to stress","Cell surface interactions at the vascular wall","Bi
ological oxidations","Signaling by GPCR","Abacavir transport and metabolism","Innate Immune System","M Phase","Generic Transcription Pathway","Metabolism of steroids","Neurotransmitter receptors and p
ostsynaptic signal transmission","Biosynthesis of specialized proresolving mediators (SPMs)","EGR2 and SOX10-mediated initiation of Schwann cell myelination","Platelet Aggregation (Plug Formation)","L
eishmania infection","Homology Directed Repair",SUMOylation,"Cellular response to hypoxia","Uptake and actions of bacterial toxins","Mitotic G1 phase and G1/S transition","Phase I - Functionalization 
of compounds","GPCR ligand binding","Mitotic G2-G2/M phases","Axon guidance","HIV Infection","Abacavir transmembrane transport","Toll-like Receptor Cascades","Nucleotide-binding domain","leucine rich 
repeat containing receptor (NLR) signaling pathways","Mitotic Metaphase and Anaphase","Transcriptional regulation by RUNX3","Bile acid and bile salt metabolism","Activation of NMDA receptors and posts
ynaptic events","Biosynthesis of DHA-derived SPMs","Leishmania parasite growth and survival","HDR through Homologous Recombination (HRR) or Single Strand Annealing (SSA)","SUMO E3 ligases SUMOylate ta
rget proteins","Oxygen-dependent proline hydroxylation of Hypoxia-inducible Factor Alpha","Uptake and function of anthrax toxins","G1/S Transition","Cytochrome P450 - arranged by substrate type","Clas
s A/1 (Rhodopsin-like receptors)","Neurotoxicity of clostridium toxins","G2/M Transition","Semaphorin interactions","Transcriptional Regulation by TP53","Host Interactions of HIV factors","Toll Like R
eceptor 5 (TLR5) Cascade","Toll Like Receptor 4 (TLR4) Cascade",Inflammasomes,"Mitotic Anaphase","RUNX3 Regulates Immune Response and Cell Migration","Recycling of bile acids and salts","Post NMDA rec
eptor activation events","Biosynthesis of maresins","Anti-inflammatory response favouring Leishmania parasite infection","HDR through Homologous Recombination (HRR)","Synthesis of bile acids and bile 
salts","SUMOylation of intracellular receptors","Activation of the pre-replicative complex",Xenobiotics,"Peptide ligand-binding receptors","Toxicity of botulinum toxin type A (botA)","Centrosome matur
ation","Sema4D in semaphorin signaling","Regulation of TP53 Activity","The role of Nef in HIV-1 replication and disease pathogenesis","MyD88 cascade initiated on plasma membrane","MyD88-independent TL
R4 cascade","The NLRP1 inflammasome","Nuclear Envelope (NE) Reassembly","Activation of AMPK downstream of NMDARs","Biosynthesis of maresin-like SPMs","ADORA2B mediated anti-inflammatory cytokines prod
uction","Homologous DNA Pairing and Strand Exchange","Synthesis of bile acids and bile salts via 7alpha-hydroxycholesterol","CYP2E1 reactions","Loss of proteins required for interphase microtubule org
anization from the centrosome","Aromatic amines can be N-hydroxylated or N-dealkylated by CYP1A2","Sema4D induced cell migration and growth-cone collapse","Tachykinin receptors bind tachykinins","Regu
lation of TP53 Expression and Degradation","Nef and signal transduction","MAP kinase activation","TRIF(TICAM1)-mediated TLR4 signaling","Initiation of Nuclear Envelope (NE) Reformation","Presynaptic p
hase of homologous DNA pairing and strand exchange","Loss of Nlp from mitotic centrosomes","Sealing of the nuclear envelope (NE) by ESCRT-III","Regulation of TP53 Degradation","activated TAK1 mediates
 p38 MAPK activation","Activation of IRF3/IRF7 mediated by TBK1/IKK epsilon"}

> <broad_targets>
{BCL2,MAP2,MAP4,MAPT,NR1I2,TLR4,TUBA1A,TUBA1B,TUBA1C,TUBA3C,TUBA3D,TUBA3E,TUBA4A,TUBB,TUBB1,TUBB2A,TUBB2B,TUBB3,TUBB4A,TUBB4B,TUBB6,TUBB8}

> <broad_moa>
{"tubulin polymerization inhibitor"}

> <synonyms>
{paclitaxel,TAXOL,33069-62-4,33069624,"Taxol A",Abraxane,Yewtaxan,Paxene,Genaxol,Paxceed,Plaxicel,Onxol,ABI-007,ABI007,Ebetaxel,Genetaxyl,Capxol,Intaxel,LipoPac,OncoGel,"Paclitaxel (Taxol)",Genexol,Pa
cliex,TaxAlbin,Zisu,NSC-125973,NSC125973,EmPAC,Onxal,"ABI 007","BMS 181",125973,Prestw-155,"NSC 125973",Paclitaxel}

> <pdid>
PD000814

> <targets>
{ADC Cytotoxin,Apoptosis,Autophagy,Microtubule/Tubulin}

> <classes>
{Microtubule inhibitor,Antibody-drug Conjugate/ADC Related,Apoptosis,Autophagy,Cell Cycle/DNA Damage,Cytoskeleton}

> <pubchem_cids>
{36314}

$$$$
NCI_AOD5_2014
  SciTegic11012412592D

 10 11  0  0  0  0            999 V2000
    2.5981   -1.5000    0.0000 O   0  0
    1.2990   -0.7500    0.0000 C   0  0
    1.2990    0.7500    0.0000 N   0  0
    0.0000    1.5000    0.0000 C   0  0
   -1.2990    0.7500    0.0000 N   0  0
   -1.2990   -0.7500    0.0000 C   0  0
   -2.4133   -1.7530    0.0000 N   0  0
   -1.8032   -3.1233    0.0000 N   0  0
   -0.3114   -2.9665    0.0000 C   0  0
    0.0000   -1.5000    0.0000 C   0  0
  1  2  2  0
  2  3  1  0
  3  4  1  0
  4  5  2  3
  5  6  1  0
  6  7  1  0
  7  8  1  0
  8  9  2  0
  9 10  1  0
 10  2  1  0
 10  6  2  0
M  END
> <name>
NCI_AOD5_2014

> <id>
2633

> <plate>
NCI_V5_B

> <well>
A02

> <supplier_cmpd_name>
Allopurinol

> <ctcr_id>
6943

> <supplier_cmpd_id>
1390

> <smiles>
O=C1NC=Nc2[nH]ncc12

> <pd_targets>
{XDH,RAB9A,BLM,LMNA,TSHR,STXA}

> <pathway_gtopdb>
{Enzyme,"Other nuclear protein","Membrane receptor",Oxidoreductase,Hydrolase,"Family A G protein-coupled receptor","Peptide receptor (family A GPCR)","Glycohormone receptor"}

> <pathway_chembl>
{Enzymes,Receptors,"1.-.-.- Oxidoreductases","G protein-coupled receptors","Glycoprotein hormone receptors"}

> <pathway_reactome>
{Metabolism,"Signal Transduction","DNA Repair","Cell Cycle",Disease,"Metabolism of nucleotides","Signaling by Rho GTPases","DNA Double-Strand Break Repair",Mitotic,"Infectious disease","Nucleobase cat
abolism","Rho GTPase cycle","Homology Directed Repair","M Phase","Leishmania infection","Purine catabolism","RHOBTB GTPase Cycle","HDR through Homologous Recombination (HRR) or Single Strand Annealing
 (SSA)","Mitotic Metaphase and Anaphase","Leishmania parasite growth and survival","RHOBTB3 ATPase cycle","HDR through Homologous Recombination (HRR)","Mitotic Anaphase","Anti-inflammatory response fa
vouring Leishmania parasite infection","Homologous DNA Pairing and Strand Exchange","Nuclear Envelope (NE) Reassembly","ADORA2B mediated anti-inflammatory cytokines production","Presynaptic phase of h
omologous DNA pairing and strand exchange","Initiation of Nuclear Envelope (NE) Reformation"}

> <broad_targets>
.

> <broad_moa>
.

> <synonyms>
{Aloprim,Allopurinol,Prestw-1213,Prestw1213,ALLOPURINOL,CPD000059083,S1630,SAM002554884,1390,1500108,"NSC 1390",Allopurinol}

> <pdid>
PD002486

> <targets>
{Others,OX Receptor,Xanthine Oxidase}

> <classes>
{antihyperuricemia,Xanthine Oxidase Inhibitor,antiurolithic,antigout,GPCR & G Protein,Metabolic Enzyme/Protease}

> <pubchem_cids>
{2094}

$$$$
NCI_AOD5_2014
  SciTegic11012412592D

 19 21  0  0  0  0            999 V2000
    4.4991   -8.4771    0.0000 O   0  0
    3.8490   -7.1253    0.0000 C   0  0
    2.3532   -7.0124    0.0000 C   0  0
    1.7031   -5.6606    0.0000 C   0  0
    2.5536   -4.4230    0.0000 C   0  0
    1.8032   -3.1233    0.0000 N   0  0
    2.4133   -1.7530    0.0000 C   0  0
    3.8805   -1.4410    0.0000 O   0  0
    1.2990   -0.7500    0.0000 C   0  0
    1.2990    0.7500    0.0000 C   0  0
    0.0000    1.5000    0.0000 C   0  0
   -1.2990    0.7500    0.0000 C   0  0
   -1.2990   -0.7500    0.0000 C   0  0
    0.0000   -1.5000    0.0000 C   0  0
    0.3114   -2.9665    0.0000 C   0  0
   -0.6923   -4.0811    0.0000 O   0  0
    4.0445   -4.5346    0.0000 C   0  0
    4.8897   -3.2954    0.0000 O   0  0
    4.6946   -5.8864    0.0000 N   0  0
  1  2  2  0
  2  3  1  0
  3  4  1  0
  4  5  1  0
  5  6  1  0
  6  7  1  0
  7  8  2  0
  7  9  1  0
  9 10  2  0
 10 11  1  0
 11 12  2  0
 12 13  1  0
 13 14  2  0
 14  9  1  0
 14 15  1  0
 15  6  1  0
 15 16  2  0
  5 17  1  0
 17 18  2  0
 17 19  1  0
 19  2  1  0
M  END
> <name>
NCI_AOD5_2014

> <id>
2634

> <plate>
NCI_V5_B

> <well>
A03

> <supplier_cmpd_name>
Thalidomide

> <ctcr_id>
857

> <supplier_cmpd_id>
66847

> <smiles>
O=C1CCC(N2C(=O)c3ccccc3C2=O)C(=O)N1

> <pd_targets>
{CRBN,PTGS1,PTGS2,ALDH1A1,CUL4A,DDB1,RBX1,TNF,NFKB1,FGFR2,ORM1,ORM2,TSHR,TDP1,CYP1A2,AMPC}

> <pathway_gtopdb>
{"Unclassified protein",Enzyme,"Secreted protein","Other cytosolic protein","Membrane receptor",Oxidoreductase,Kinase,"Family A G protein-coupled receptor",Hydrolase,"Cytochrome P450","Protein Kinase"
,"Peptide receptor (family A GPCR)","Cytochrome P450 family 1","TK protein kinase group","Glycohormone receptor","Cytochrome P450 family 1A","Tyrosine protein kinase FGFR family","Cytochrome P450 1A1"
}

> <pathway_chembl>
{Enzymes,Receptors,"E3 ubiquitin ligase components","Eicosanoid turnover","Catalytic receptors","G protein-coupled receptors","Cytochrome P450",Cyclooxygenase,"Receptor kinases","Glycoprotein hormone 
receptors","CYP1 family","TK: Tyrosine kinase","Receptor tyrosine kinases (RTKs)","Type V RTKs: FGF (fibroblast growth factor) receptor family"}

> <pathway_reactome>
{Disease,Metabolism,"Immune System","DNA Repair","Infectious disease","Metabolism of lipids","Biological oxidations","Cytokine Signaling in Immune system","Diseases of signal transduction by growth fa
ctor receptors and second messengers","DNA Double-Strand Break Repair","SARS-CoV Infections","Fatty acid metabolism","Biosynthesis of specialized proresolving mediators (SPMs)","Phase I - Functionaliz
ation of compounds","Signaling by Interleukins","Signaling by FGFR in disease","Leishmania infection","Nonhomologous End-Joining (NHEJ)","Potential therapeutics for SARS","Arachidonic acid metabolism"
,"Biosynthesis of DPA-derived SPMs","Ethanol oxidation","Interleukin-10 signaling","Interleukin-1 family signaling","Signaling by FGFR2 in disease","Leishmania parasite growth and survival","Cytochrom
e P450 - arranged by substrate type","Synthesis of Prostaglandins (PG) and Thromboxanes (TX)","Biosynthesis of DPAn-3 SPMs","Interleukin-1 signaling","FGFR2 mutant receptor activation","Anti-inflammat
ory response favouring Leishmania parasite infection",Xenobiotics,"MAP3K8 (TPL2)-dependent MAPK1/3 activation","Activated point mutants of FGFR2","ADORA2B mediated anti-inflammatory cytokines producti
on","Aromatic amines can be N-hydroxylated or N-dealkylated by CYP1A2"}

> <broad_targets>
{TNF}

> <broad_moa>
{"tumor necrosis factor production inhibitor"}

> <synonyms>
{thalidomide,50-35-1,50351,Thalomid,"2-(2,6-dioxopiperidin-3-yl)isoindoline-1,3-dione","2(2,6dioxopiperidin3yl)isoindoline1,3dione",Sedoval,(+/-)-THALIDOMIDE,(+/)THALIDOMIDE,Corronarobetin,Psycholiqui
d,Psychotablets,Theophilcholine,Algosediv,Asmadion,Bonbrain,Calmorex,Contergan,Distaval,Ectiluran,Enterosediv,T0213,66847,S1193,SAM002564245,1503607,Prestw-192,"NSC 66847",Thalidomide,CPD000058524,THA
LIDOMIDE}

> <pdid>
PD000977

> <targets>
{Apoptosis,Autophagy,Ligand for E3 Ligase}

> <classes>
{hypnotic,immunomodulatory agent,Apoptosis,Autophagy,PROTAC}

> <pubchem_cids>
{5426}

$$$$
NCI_AOD5_2014
  SciTegic11012412592D

 24 24  0  0  0  0            999 V2000
    9.5629   -0.4995    0.0000 Cl  0  0
   -0.6923   -4.0811    0.0000 C   0  0
    0.3114   -2.9665    0.0000 N   0  0
    1.8032   -3.1233    0.0000 C   0  0
    2.5551   -4.4192    0.0000 C   0  0
    4.0559   -4.4171    0.0000 C   0  0
    4.8090   -5.7153    0.0000 C   0  0
    6.3098   -5.7131    0.0000 C   0  0
    7.0575   -4.4127    0.0000 O   0  0
    7.0625   -7.0106    0.0000 O   0  0
    2.4133   -1.7530    0.0000 N   0  0
    1.2990   -0.7500    0.0000 C   0  0
    1.2990    0.7500    0.0000 C   0  0
    0.0000    1.5000    0.0000 C   0  0
   -1.2990    0.7500    0.0000 C   0  0
   -1.2990   -0.7500    0.0000 C   0  0
    0.0000   -1.5000    0.0000 C   0  0
   -0.0031    3.0008    0.0000 N   0  0
   -1.3039    3.7494    0.0000 C   0  0
   -1.3070    5.2502    0.0000 C   0  0
   -2.6071    5.9984    0.0000 Cl  0  0
    1.2938    3.7562    0.0000 C   0  0
    1.2890    5.2570    0.0000 C   0  0
    2.5852    6.0119    0.0000 Cl  0  0
  2  3  1  0
  3  4  1  0
  4  5  1  0
  5  6  1  0
  6  7  1  0
  7  8  1  0
  8  9  1  0
  8 10  2  0
  4 11  2  0
 11 12  1  0
 12 13  2  0
 13 14  1  0
 14 15  2  0
 15 16  1  0
 16 17  2  0
 17  3  1  0
 17 12  1  0
 14 18  1  0
 18 19  1  0
 19 20  1  0
 20 21  1  0
 18 22  1  0
 22 23  1  0
 23 24  1  0
M  END
> <name>
NCI_AOD5_2014

> <id>
2635

> <plate>
NCI_V5_B

> <well>
A04

> <supplier_cmpd_name>
Bendamustine hydrochloride

> <ctcr_id>
4363

> <supplier_cmpd_id>
138783

> <smiles>
Cl.Cn1c(CCCC(O)=O)nc2cc(ccc12)N(CCCl)CCCl

> <pd_targets>
{HDAC1,HDAC6,HDAC10,HDAC2,HDAC8,HDAC3}

> <pathway_gtopdb>
{"Epigenetic regulator",Eraser,"Histone deacetylase","HDAC class I","HDAC class IIb"}

> <pathway_chembl>
{Enzymes,"Chromatin modifying enzymes","3.5.1.- Histone deacetylases (HDACs)"}

> <pathway_reactome>
{Disease,"Gene expression (Transcription)","Cell Cycle","Disorders of Developmental Biology","RNA Polymerase II Transcription","Diseases of signal transduction by growth factor receptors and second me
ssengers",Mitotic,"Disorders of Nervous System Development","Generic Transcription Pathway","Signaling by NOTCH1 in Cancer","M Phase","Pervasive developmental disorders","Transcriptional regulation by
 RUNX2","Signaling by NOTCH1 HD+PEST Domain Mutants in Cancer","Transcriptional Regulation by TP53","Mitotic Metaphase and Anaphase","Loss of function of MECP2 in Rett syndrome","RUNX2 regulates bone 
development","Constitutive Signaling by NOTCH1 HD+PEST Domain Mutants","Regulation of TP53 Activity","Mitotic Anaphase","Loss of MECP2 binding ability to 5mC-DNA","RUNX2 regulates osteoblast different
iation","Regulation of TP53 Activity through Acetylation","Separation of Sister Chromatids","Loss of MECP2 binding ability to the NCoR/SMRT complex"}

> <broad_targets>
{}

> <broad_moa>
{"DNA inhibitor"}

> <synonyms>
{"Bendamustine hydrochloride",3543-75-7,3543757,"Bendamustine HCl",Treanda,Ribomustin,Cytostasan,"Bendamustin hydrochloride",SDX-105,SDX105,"IMET 3393",Treakisym,"SyB L-0501","SyB L0501","Bendamustine
 (hydrochloride)",Bendeka,UNII-981Y8SX18M,UNII981Y8SX18M,"SDX 105",3,T0095,138783,S1212,"NSC 138783","Bendamustine HCl","bendamustine hydrochloride"}

> <pdid>
PD003516

> <targets>
{Apoptosis,DNA Alkylator/Crosslinker}

> <classes>
{Alkylating agent,Apoptosis,Cell Cycle/DNA Damage}

> <pubchem_cids>
{77082,46863991}

$$$$
NCI_AOD5_2014
  SciTegic11012412592D

 19 21  0  0  1  0            999 V2000
    2.4649   -8.5570    0.0000 O   0  0
    1.0464   -8.0694    0.0000 C   0  0
    0.7588   -6.5990    0.0000 C   0  0
    1.7829   -5.5029    0.0000 O   0  0
    1.0494   -4.2146    0.0000 C   0  0
   -0.4158   -4.4751    0.0000 C   0  0
   -0.6000   -5.9637    0.0000 C   0  0
   -1.9127   -6.6897    0.0000 O   0  0
    1.5767   -2.8095    0.0000 N   0  0
    3.0226   -2.4104    0.0000 C   0  0
    3.0899   -0.9120    0.0000 N   0  0
    1.6852   -0.3846    0.0000 C   0  0
    1.3514    1.0778    0.0000 C   0  0  2  0  0  0
    2.5242    2.0130    0.0000 O   0  0
    0.0000    1.7286    0.0000 C   0  0
   -1.3515    1.0777    0.0000 N   0  0
   -1.6852   -0.3847    0.0000 C   0  0
   -0.7500   -1.5574    0.0000 N   0  0
    0.7500   -1.5574    0.0000 C   0  0
  1  2  1  0
  2  3  1  0
  3  4  1  0
  4  5  1  0
  5  6  1  0
  6  7  1  0
  7  3  1  0
  7  8  1  0
  5  9  1  0
  9 10  1  0
 10 11  2  0
 11 12  1  0
 12 13  1  0
 13 14  1  1
 13 15  1  0
 15 16  1  0
 16 17  2  3
 17 18  1  0
 18 19  1  0
 19  9  1  0
 19 12  2  0
M  END
> <name>
NCI_AOD5_2014

> <id>
2636

> <plate>
NCI_V5_B

> <well>
A05

> <supplier_cmpd_name>
Pentostatin

> <ctcr_id>
6972

> <supplier_cmpd_id>
218321

> <smiles>
OCC1OC(CC1O)n2cnc3[C@H](O)CN=CNc23

> <pd_targets>
{ADA}

> <pathway_gtopdb>
{Enzyme,Hydrolase}

> <pathway_chembl>
{Enzymes,"Adenosine turnover"}

> <pathway_reactome>
{Metabolism,"Metabolism of nucleotides","Nucleotide salvage","Purine salvage"}

> <broad_targets>
{ADA}

> <broad_moa>
{"adenosine deaminase inhibitor","ribonucleotide reductase inhibitor"}

> <synonyms>
{Co-V,CoV,Vidarbine,CO-Vidarabine,COVidarabine,2'-Deoxycoformycin,2'Deoxycoformycin,NSC218321,PD-ADI,PDADI,"Deaminase inhibitor (PD)","Vira A deaminase inhibitor",Covidarabine,"Deaminase inhibitor","N
SC 218321","CL 67310465",53910-25-1,53910251,Niapent,SCHEMBL172758,CHEMBL360191,NSC247520,NSC,T4006,218321,Pentostatin}

> <pdid>
PD009968

> <targets>
{}

> <classes>
{"Adenosine deaminase inhibitor"}

> <pubchem_cids>
{40926}

$$$$
NCI_AOD5_2014
  SciTegic11012412592D

 32 34  0  0  0  0            999 V2000
    3.8926   -3.7566    0.0000 C   0  0
    2.5951   -3.0039    0.0000 N   0  0
    2.5973   -1.5031    0.0000 C   0  0
    3.8976   -0.7553    0.0000 O   0  0
    1.2990   -0.7500    0.0000 C   0  0
    1.2990    0.7500    0.0000 C   0  0
    0.0000    1.5000    0.0000 C   0  0
   -0.0031    3.0008    0.0000 O   0  0
   -1.3039    3.7494    0.0000 C   0  0
   -1.3092    5.2494    0.0000 C   0  0
   -2.6108    5.9949    0.0000 C   0  0
   -3.9073    5.2404    0.0000 C   0  0
   -5.2112    5.9836    0.0000 N   0  0
   -6.5072    5.2269    0.0000 C   0  0
   -6.4994    3.7269    0.0000 O   0  0
   -7.8111    5.9701    0.0000 N   0  0
   -9.1072    5.2134    0.0000 C   0  0
  -10.4114    5.9543    0.0000 C   0  0
  -11.7053    5.1953    0.0000 C   0  0
  -11.6949    3.6953    0.0000 C   0  0
  -12.9887    2.9364    0.0000 Cl  0  0
  -10.3907    2.9543    0.0000 C   0  0
   -9.0969    3.7133    0.0000 C   0  0
  -10.3803    1.4536    0.0000 C   0  0
  -11.6736    0.6938    0.0000 F   0  0
   -9.0759    0.7130    0.0000 F   0  0
  -10.3692   -0.0464    0.0000 F   0  0
   -3.9021    3.7404    0.0000 C   0  0
   -2.6005    2.9949    0.0000 C   0  0
   -1.2990    0.7500    0.0000 C   0  0
   -1.2990   -0.7500    0.0000 C   0  0
    0.0000   -1.5000    0.0000 N   0  0
  1  2  1  0
  2  3  1  0
  3  4  2  0
  3  5  1  0
  5  6  2  0
  6  7  1  0
  7  8  1  0
  8  9  1  0
  9 10  2  0
 10 11  1  0
 11 12  2  0
 12 13  1  0
 13 14  1  0
 14 15  2  0
 14 16  1  0
 16 17  1  0
 17 18  2  0
 18 19  1  0
 19 20  2  0
 20 21  1  0
 20 22  1  0
 22 23  2  0
 23 17  1  0
 22 24  1  0
 24 25  1  0
 24 26  1  0
 24 27  1  0
 12 28  1  0
 28 29  2  0
 29  9  1  0
  7 30  2  0
 30 31  1  0
 31 32  2  0
 32  5  1  0
M  END
> <name>
NCI_AOD5_2014

> <id>
2637

> <plate>
NCI_V5_B

> <well>
A06

> <supplier_cmpd_name>
Sorafenib

> <ctcr_id>
6031

> <supplier_cmpd_id>
747971

> <smiles>
CNC(=O)c1cc(Oc2ccc(NC(=O)Nc3ccc(Cl)c(c3)C(F)(F)F)cc2)ccn1

> <pd_targets>
{EPHA6,RAF1,MKNK2,EPHA5,FLT4,FLT3,MAPK12,HTR7,BRAF,CSF1R,CDK17,CDK14,AURKA,AXL,CAMK2B,RET,FGR,MAP2K5,ARAF,KDR,CDK8,KIT,MAPK14,FRK,EPHA8,ABL2,EPHA4,SLK,FGFR1,RIPK2,NTRK1,STK36,LCK,MAPK13,STK33,TNNI3K,D
DR2,LYN,AURKC,TAOK3,PDGFRB,MYLK3,ABL1,STK10,CLK1,TTK,MAPK15,CIT,TEK,HTR6,CDK7,SRMS,MINK1,KMT2A,MEN1,FGFR2,EPHA2,FGFR3,TAOK1,CDK19,DDR1,EPHB4,FLT1,MYLK2,CDK2,HIPK2,MAPK11,EPHA7,MAP4K5,LIMK1,MAPK9,HIPK4
,EPHA3,MKNK1,SRPK1,TNK1,AURKB,CDKL2,CDKL3,HIPK1,CCNC,MAPK1,EGFR,TGFBR2,HTR2B,CDK5,MAP3K20,MAP4K4,PDGFRA,TIE1,RPS6KA6,FYN,EPHB1,EPHB2,NTRK2,TNIK,NTRK3,MUSK,HIPK3,EPHA1,IRAK1,RORC,MERTK,EPHB6,NLK,MAPK3,
DYRK3,CDK3,NTSR1,RPS6KB1,PLK2,MAP3K7,LIMK2,HCK,HTR2C,CDK15,HTR2A,EPHX2,PLK4,MAP4K1,CDPK1,HTR5A,MYO3B,ABCB11,CSNK1A1,MAP3K19,MET,TAOK2,CSK,JAK3,BLK,RIPK1,CCNA2,HTR1A,SRC,GSK3B,INSR,CA7,CYP19A1,MAP2K1,R
IPK3,PAX8,LMP1,MC4R}

> <pathway_gtopdb>
{Enzyme,"Membrane receptor","Epigenetic regulator","Transcription factor","Unclassified protein",Transporter,Kinase,"Family A G protein-coupled receptor",Reader,"Nuclear receptor",Protease,"Primary ac
tive transporter",Lyase,"Cytochrome P450","Protein Kinase","Small molecule receptor (family A GPCR)",Bromodomain,"Nuclear hormone receptor subfamily 1","Peptide receptor (family A GPCR)","Serine prote
ase","ATP-binding cassette","Cytochrome P450 family 19","TK protein kinase group","TKL protein kinase group","CAMK protein kinase group","CMGC protein kinase group","Monoamine receptor","Other protein
 kinase group","STE protein kinase group","AGC protein kinase group","Nuclear hormone receptor subfamily 1 group F","Short peptide receptor (family A GPCR)","Serine protease SC clan","ABCB subfamily",
"CK1 protein kinase group","Cytochrome P450 family 19A","Tyrosine protein kinase Eph family","TKL protein kinase RAF family","CAMK protein kinase MAPKAPK family","Tyrosine protein kinase VEGFR family"
,"Tyrosine protein kinase PDGFR family","CMGC protein kinase MAPK family","Serotonin receptor","CMGC protein kinase CDK family","Other protein kinase AUR family","Tyrosine protein kinase Axl family","
CAMK protein kinase CAMK2 family","Tyrosine protein kinase Ret family","Tyrosine protein kinase Src family","STE protein kinase STE7 family","Tyrosine protein kinase Abl family","STE protein kinase ST
E20 family","Tyrosine protein kinase FGFR family","TKL protein kinase RIPK family","Tyrosine protein kinase Trk family","Other protein kinase ULK family","CAMK protein kinase unique family","TKL prote
in kinase MLK family","Tyrosine protein kinase DDR family","CAMK protein kinase MLCK family","CMGC protein kinase CLK family","Other protein kinase TTK family","AGC protein kinase DMPK family","Tyrosi
ne protein kinase Tie family","CMGC protein kinase DYRK family","TKL protein kinase LISK family","CMGC protein kinase SRPK family","Tyrosine protein kinase Ack family","CMGC protein kinase CDKL family
","Tyrosine protein kinase EGFR family","TKL protein kinase STKR family","AGC protein kinase RSK family","Tyrosine protein kinase Musk family","TKL protein kinase IRAK family","Nuclear hormone recepto
r subfamily 1 group F member 3","Neurotensin receptor","Other protein kinase PLK family","Serine protease S33 family","CK1 protein kinase CK1 family","STE protein kinase STE11 family","Tyrosine protei
n kinase Met family","Tyrosine protein kinase Csk family","Tyrosine protein kinase JakA family","CMGC protein kinase GSK family","Tyrosine protein kinase InsR family","Cytochrome P450 19A1","Melanocor
tin receptor","CAMK protein kinase MNK subfamily","CMGC protein kinase p38 subfamily","CMGC protein kinase PCTAIRE","CMGC protein kinase PFTAIRE","CMGC protein kinase CDK8 subfamily","STE protein kina
se SLK subfamily","TKL protein kinase HH498 subfamily","STE protein kinase TAO subfamily","AGC protein kinase CRIK subfamily","CMGC protein kinase CDK7 subfamily","Tyrosine protein kinase Srm","STE pr
otein kinase MSN subfamily","CMGC protein kinase CDC2 subfamily","CMGC protein kinase HIPK subfamily","STE protein kinase KHS subfamily","TKL protein kinase LIMK subfamily","CMGC protein kinase JNK su
bfamily","CMGC protein kinase ERK1","TKL protein kinase STKR Type 2 subfamily","CMGC protein kinase CDK5 subfamily","TKL protein kinase MLK subfamily","AGC protein kinase RSK subfamily","Tyrosine prot
ein kinase SrcA","CMGC protein kinase nmo subfamily","CMGC protein kinase Dyrk2 subfamily","AGC protein kinase p70 subfamily","Other protein kinase PLK2","TKL protein kinase TAK1 subfamily","STE prote
in kinase NinaC subfamily"}

> <pathway_chembl>
{Receptors,Enzymes,Transporters,"Catalytic receptors","Kinases (EC 2.7.x.x)","G protein-coupled receptors","Nuclear hormone receptors",Hydrolases,"ATP-binding cassette transporter family","Carbonic an
hydrases","Cytochrome P450","Receptor kinases","CAMK: Calcium/calmodulin-dependent protein kinases","CMGC: Containing CDK",MAPK,GSK3,"CLK families","5-Hydroxytryptamine receptors","STE: Homologs of ye
ast Sterile 7","Sterile 11","Sterile 20 kinases","AGC: Containing PKA",PKG,"PKC families","1F. Retinoic acid-related orphans","Neurotensin receptors","ABCB subfamily","CK1: Casein kinase 1",CYP11,CYP1
7,CYP19,"CYP20 and CYP21 families","Melanocortin receptors","TK: Tyrosine kinase","TKL: Tyrosine kinase-like","MAPK-Activated Protein Kinase (MAPKAPK) family","Mitogen-activated protein kinases (MAP k
inases)","Cyclin-dependent kinase (CDK) family","Other protein kinases","CAMK2 family","STE7 family","STE20 family","CAMK-unique family","Myosin Light Chain Kinase (MLCK) family","CLK family","DMPK fa
mily","Dual-specificity tyrosine-(Y)-phosphorylation regulated kinase (DYRK) family","SRPK family","Cyclin-dependent kinase-like (CDKL) family","RSK family","Casein kinase 1 (CK1) family","Glycogen sy
nthase kinase (GSK) family","Receptor tyrosine kinases (RTKs)","RAF family","MKN subfamily","p38 subfamily","TAIRE subfamily","Aurora kinase (Aur) family","Non-receptor tyrosine kinases (nRTKs)","CDK8
 subfamily","SLK subfamily","Receptor interacting protein kinase (RIPK) family","Unc-51-like kinase (ULK) family","Mixed Lineage Kinase (MLK) family","TAO subfamily","TTK family","Erk7 subfamily","Oth
er DMPK family kinases","CDK7 subfamily","MSN subfamily","CDK1 subfamily","HIPK subfamily","KHS subfamily","LIM domain kinase (LISK) family","JNK subfamily","ERK subfamily","Receptor serine/threonine 
kinase (RSTK) family","CDK5 subfamily","RSK subfamily","Interleukin-1 receptor-associated kinase (IRAK) family","nmo subfamily","Dyrk2 subfamily","p70 subfamily","Polo-like kinase (PLK) family","NinaC
 subfamily","STE20 subfamily","GSK subfamily","Type XIII RTKs: Ephrin receptor family","Type IV RTKs: VEGF (vascular endothelial growth factor) receptor family","Type III RTKs: PDGFR",CSFR,Kit,"FLT3 r
eceptor family","Type XI RTKs: TAM (TYRO3-","AXL- and MER-TK) receptor family","Type XIV RTKs: RET","Src family","Abl family","Type V RTKs: FGF (fibroblast growth factor) receptor family","Type VII RT
Ks: Neurotrophin receptor/Trk family","HH498 subfamily","Type XVI RTKs: DDR (collagen receptor) family","Type XII RTKs: TIE family of angiopoietin receptors","LIMK subfamily","Ack family","Type I RTKs
: ErbB (epidermal growth factor) receptor family","Type II receptor serine/threonine kinases","MLK subfamily","Type IX RTKs: MuSK","TAK1 subfamily","Type X RTKs: HGF (hepatocyte growth factor) recepto
r family","Csk family","Janus kinase (JakA) family","Type II RTKs: Insulin receptor family"}

> <pathway_reactome>
{"Developmental Biology","Signal Transduction",Disease,"Gene expression (Transcription)","Neuronal System","Immune System","Extracellular matrix organization","Cellular responses to external stimuli",
"Cell Cycle",Metabolism,Hemostasis,"Nervous system development","MAPK family signaling cascades","Signaling by Receptor Tyrosine Kinases","Infectious disease","RNA Polymerase II Transcription","Transm
ission across Chemical Synapses","Diseases of signal transduction by growth factor receptors and second messengers","Innate Immune System","Intracellular signaling by second messengers","Non-integrin 
membrane-ECM interactions","Signaling by Rho GTPases","Signaling by Non-Receptor Tyrosine Kinases","Cellular responses to stress",Mitotic,"Metabolism of lipids","Signaling by GPCR","ECM proteoglycans"
,"Cell surface interactions at the vascular wall","Signaling by WNT","MTOR signalling","Cytokine Signaling in Immune system","Reversible hydration of carbon dioxide","Biological oxidations","Axon guid
ance","MAPK1/MAPK3 signaling","Signaling by VEGF","Signaling by Insulin receptor","Signaling by NTRKs","Leishmania infection","Generic Transcription Pathway","Neurotransmitter receptors and postsynapt
ic signal transmission","Oncogenic MAPK signaling","Signaling by NOTCH1 in Cancer","Signaling by KIT in disease","Toll-like Receptor Cascades","PIP3 activates AKT signaling","Signaling by FGFR in dise
ase","HIV Infection","Neutrophil degranulation","RHO GTPase Effectors","Signaling by PTK6","Cellular Senescence","M Phase","Regulation of lipid metabolism by PPARalpha","Signaling by FGFR","GPCR downs
tream signalling","Signaling by TGF-beta Receptor Complex in Cancer","GPCR ligand binding","Signaling by PDGFR in disease","Beta-catenin independent WNT signaling","mTORC1-mediated signalling","Biosyn
thesis of specialized proresolving mediators (SPMs)","Mitotic G2-G2/M phases","Metabolism of steroids","Signaling by WNT in cancer","Signaling by Interleukins","SARS-CoV Infections","Phase I - Functio
nalization of compounds","EPH-Ephrin signaling","RAF/MAP kinase cascade","VEGF ligand-receptor interactions","Insulin receptor signalling cascade","Signaling by NTRK1 (TRKA)","Leishmania parasite grow
th and survival","Transcriptional Regulation by VENTX","Transcriptional Regulation by TP53","VEGFA-VEGFR2 Pathway","Activation of NMDA receptors and postsynaptic events","RET signaling","Signaling by 
RAS mutants","Signaling by NOTCH1 HD+PEST Domain Mutants in Cancer","Drug resistance of KIT mutants","Toll Like Receptor 5 (TLR5) Cascade","PTEN Regulation","Signaling by ROBO receptors","Signaling by
 FGFR1 in disease","Host Interactions of HIV factors","Negative regulation of the PI3K/AKT network","Parasite infection","RHO GTPases activate CIT","HIV Life Cycle","PTK6 Down-Regulation","Oxidative S
tress Induced Senescence","Signaling by FGFR2 in disease","Signaling by FGFR3 in disease","Mitotic Metaphase and Anaphase","PPARA activates gene expression","Semaphorin interactions","Signaling by FGF
R4","G alpha (q) signalling events","Loss of Function of SMAD2/3 in Cancer","Class A/1 (Rhodopsin-like receptors)","Drug resistance of PDGFR mutants","Signaling by NTRK3 (TRKC)","Transcriptional regul
ation by RUNX3","Ca2+ pathway","Toll Like Receptor 4 (TLR4) Cascade","Biosynthesis of DHA-derived SPMs","G2/M Transition","Bile acid and bile salt metabolism","Signaling by AMER1 mutants","Interleukin
-2 family signaling","Transcriptional regulation by RUNX1","SARS-CoV-1 Infection","Cytochrome P450 - arranged by substrate type","EPHA-mediated growth cone collapse","Negative regulation of MAPK pathw
ay","VEGF binds to VEGFR leading to receptor dimerization","IRS-mediated signalling","Signalling to ERKs","Anti-inflammatory response favouring Leishmania parasite infection","Regulation of TP53 Activ
ity","Post NMDA receptor activation events","Signalling to ERK5","Signaling downstream of RAS mutants","VEGFR2 mediated cell proliferation","Constitutive Signaling by NOTCH1 HD+PEST Domain Mutants","D
asatinib-resistant KIT mutants","MyD88 cascade initiated on plasma membrane","Regulation of PTEN stability and activity","Role of ABL in ROBO-SLIT signaling","FGFR1 mutant receptor activation","The ro
le of Nef in HIV-1 replication and disease pathogenesis",PI5P,"PP2A and IER3 Regulate PI3K/AKT Signaling","Leishmania phagocytosis","Late Phase of HIV Life Cycle","FGFR2 mutant receptor activation","S
ignaling by FGFR3 point mutants in cancer","Mitotic Anaphase","EPHB-mediated forward signaling","Sema4D in semaphorin signaling","Negative regulation of FGFR4 signaling","Gastrin-CREB signalling pathw
ay via PKC and MAPK","SMAD2/3 Phosphorylation Motif Mutants in Cancer","Amine ligand-binding receptors","Imatinib-resistant PDGFR mutants","Activation of TRKA receptors","Activated NTRK3 signals throu
gh PI3K","RUNX3 Regulates Immune Response and Cell Migration","Peptide ligand-binding receptors","MyD88-independent TLR4 cascade","Biosynthesis of maresins","Centrosome maturation","Synthesis of bile 
acids and bile salts","Truncations of AMER1 destabilize the destruction complex","Interleukin-15 signaling","RUNX1 regulates transcription of genes involved in BCR signaling","SARS-CoV-1 Genome Replic
ation and Transcription","Endogenous sterols","Negative feedback regulation of MAPK pathway","PI3K Cascade","Signalling to RAS","ADORA2B mediated anti-inflammatory cytokines production","Prolonged ERK
 activation events","Regulation of TP53 Activity through Phosphorylation","CREB1 phosphorylation through NMDA receptor-mediated activation of RAS signaling","FCGR3A-mediated IL10 synthesis","MAP kinas
e activation","Signaling by activated point mutants of FGFR1","Nef-mediates down modulation of cell surface receptors by recruiting them to clathrin adapters","FCGR3A-mediated phagocytosis","Transcrip
tion of the HIV genome","Activated point mutants of FGFR2","FGFR3 mutant receptor activation","Separation of Sister Chromatids","Regulation of TP53 Expression and Degradation","Sema4D induced cell mig
ration and growth-cone collapse","Spry regulation of FGF signaling","EGFR Transactivation by Gastrin","Serotonin receptors","Nef and signal transduction","NGF-independant TRKA activation","CD163 media
ting an anti-inflammatory response","TRIF(TICAM1)-mediated TLR4 signaling","Loss of proteins required for interphase microtubule organization from the centrosome","Synthesis of bile acids and bile sal
ts via 7alpha-hydroxycholesterol","Sema4D mediated inhibition of cell attachment and migration","Replication of the SARS-CoV-1 genome","p38MAPK events","ARMS-mediated activation","Ras activation upon 
Ca2+ influx through NMDA receptor","MAPK targets/ Nuclear events mediated by MAP kinases","activated TAK1 mediates p38 MAPK activation","Nef Mediated CD4 Down-regulation","HIV Transcription Elongation
","Signaling by activated point mutants of FGFR3","Regulation of TP53 Degradation","RSK activation","TRAF6-mediated induction of TAK1 complex within TLR4 complex","Loss of Nlp from mitotic centrosomes
","IKK complex recruitment mediated by RIP1","Activation of the AP-1 family of transcription factors","Tat-mediated elongation of the HIV-1 transcript","ERK/MAPK targets","Formation of HIV-1 elongatio
n complex containing HIV-1 Tat","ERKs are inactivated"}

> <broad_targets>
{BRAF,DDR2,FGFR1,FLT1,FLT3,FLT4,KDR,KIT,PDGFRB,RAF1,RET}

> <broad_moa>
{"FLT3 inhibitor","KIT inhibitor","PDGFR tyrosine kinase receptor inhibitor","RAF inhibitor","RET tyrosine kinase inhibitor","VEGFR inhibitor"}

> <synonyms>
{"AY 43900",Sorafenib,284461-73-0,284461730,Nexavar,"BAY 43-9006","BAY 439006",UNII-9ZOQ3TZI87,UNII9ZOQ3TZI87,"Sorafenib free base","284461-73-0 (free base)","284461730 (free base)",100012-18-8,100012
188,BAY-43-9006,BAY439006,9ZOQ3TZI87,CHEMBL1336,DTXSID7041128,CHEBI:50924,MFCD06411450,"Sorafenib (Nexavar)","Donafenib (Sorafenib D3)",T0093L,747971,10009644,S7397,"NSC 747971",sorafenib,"Sorafenib T
osylate",SORAFENIB,"Sorafenib tosylate"}

> <pdid>
PD003493

> <targets>
{B-Raf,PDGFR,Raf,RAF,KIT,VEGFR2/3,Apoptosis,Autophagy,Ferroptosis,FLT3,VEGFR}

> <classes>
{Raf/PDGF/VEGFR inhibitor,Apoptosis,Autophagy,MAPK/ERK Pathway,Protein Tyrosine Kinase/RTK}

> <pubchem_cids>
{216239}

$$$$
NCI_AOD5_2014
  SciTegic11012412592D

 39 43  0  0  0  0            999 V2000
    6.4451   -1.8434    0.0000 C   0  0
    4.9531   -1.9978    0.0000 C   0  0
    3.9511   -0.8815    0.0000 C   0  0
    2.5987   -1.5004    0.0000 N   0  0
    2.7343   -2.9815    0.0000 C   0  0
    4.2010   -3.2956    0.0000 N   0  0
    1.2990   -0.7500    0.0000 C   0  0
    1.2990    0.7500    0.0000 C   0  0
    0.0000    1.5000    0.0000 C   0  0
   -0.0031    3.0008    0.0000 N   0  0
   -1.3039    3.7494    0.0000 C   0  0
   -2.6017    2.9971    0.0000 O   0  0
   -1.3070    5.2502    0.0000 C   0  0
   -2.6061    6.0003    0.0000 C   0  0
   -2.6061    7.5003    0.0000 C   0  0
   -1.3071    8.2503    0.0000 C   0  0
   -1.3071    9.7503    0.0000 C   0  0
   -0.0080    7.5003    0.0000 C   0  0
    1.2933    8.2481    0.0000 N   0  0
    2.5920    7.4959    0.0000 C   0  0
    3.8936    8.2414    0.0000 N   0  0
    5.1901    7.4869    0.0000 C   0  0
    5.1849    5.9869    0.0000 C   0  0
    3.8833    5.2414    0.0000 C   0  0
    2.5869    5.9958    0.0000 N   0  0
    3.8782    3.7406    0.0000 C   0  0
    5.1735    2.9840    0.0000 C   0  0
    5.1659    1.4840    0.0000 C   0  0
    3.8632    0.7406    0.0000 C   0  0
    2.5679    1.4971    0.0000 N   0  0
    2.5754    2.9971    0.0000 C   0  0
   -0.0080    6.0003    0.0000 C   0  0
   -1.2990    0.7500    0.0000 C   0  0
   -1.2990   -0.7500    0.0000 C   0  0
    0.0000   -1.5000    0.0000 C   0  0
   -2.5988   -1.5004    0.0000 C   0  0
   -3.8983   -0.7513    0.0000 F   0  0
   -2.5983   -3.0004    0.0000 F   0  0
   -3.8975   -2.2510    0.0000 F   0  0
  1  2  1  0
  2  3  2  0
  3  4  1  0
  4  5  1  0
  5  6  2  0
  6  2  1  0
  4  7  1  0
  7  8  2  0
  8  9  1  0
  9 10  1  0
 10 11  1  0
 11 12  2  0
 11 13  1  0
 13 14  2  0
 14 15  1  0
 15 16  2  0
 16 17  1  0
 16 18  1  0
 18 19  1  0
 19 20  1  0
 20 21  2  0
 21 22  1  0
 22 23  2  0
 23 24  1  0
 24 25  2  0
 25 20  1  0
 24 26  1  0
 26 27  2  0
 27 28  1  0
 28 29  2  0
 29 30  1  0
 30 31  2  0
 31 26  1  0
 18 32  2  0
 32 13  1  0
  9 33  2  0
 33 34  1  0
 34 35  2  0
 35  7  1  0
 34 36  1  0
 36 37  1  0
 36 38  1  0
 36 39  1  0
M  END
> <name>
NCI_AOD5_2014

> <id>
2638

> <plate>
NCI_V5_B

> <well>
A07

> <supplier_cmpd_name>
Nilotinib

> <ctcr_id>
1905

> <supplier_cmpd_id>
747599

> <smiles>
Cc1cn(cn1)c2cc(NC(=O)c3ccc(C)c(Nc4nccc(n4)c5cccnc5)c3)cc(c2)C(F)(F)F

> <pd_targets>
{ZAP70,DDR2,HCK,KCNH2,CA3,CA13,ABL1,BCR,STK10,NTRK2,MAPK10,RAF1,FGFR2,EPHB1,KIT,ABL2,EPHA3,TEK,CLK1,CSK,EPHA2,MAP3K20,SRC,PDGFRA,BLK,MAPK14,MAPK9,LYN,EPHB4,EPHA8,CLK4,BRAF,CA5A,CA4,JAK2,FLT3,DDR1,MAP2
K5,CA1,CA5B,CA2,CA9,CDC42BPB,FGR,PIP4K2C,MAP4K1,CSF1R,NTRK3,EPHA5,CDPK1,MAPK8,MAPK11,EPHB6,TIE1,RET,EPHA1,EPHA6,TAOK3,EPHB3,LCK,YES1,CA12,CA14,NQO2,TAOK1,CA6,MET,PDGFRB,EPHA4,FRK,CA7,CA15,EPHB2,TNNI3K
,MST1R,INSR,FYN,BMX,TYK2,FGFR1,CACNA1C,CACNA1D,CACNA1F,CACNA1S}

> <pathway_gtopdb>
{Enzyme,"Ion channel","Unclassified protein",Kinase,"Voltage-gated ion channel",Lyase,Transferase,Oxidoreductase,"Protein Kinase","Potassium channels","Voltage-gated calcium channel","TK protein kinas
e group","Voltage-gated potassium channel","Atypical protein kinase group","STE protein kinase group","CMGC protein kinase group","TKL protein kinase group","AGC protein kinase group","Tyrosine protei
n kinase Syk family","Tyrosine protein kinase DDR family","Tyrosine protein kinase Src family","Tyrosine protein kinase Abl family","Atypical protein kinase BCR family","STE protein kinase STE20 famil
y","Tyrosine protein kinase Trk family","CMGC protein kinase MAPK family","TKL protein kinase RAF family","Tyrosine protein kinase FGFR family","Tyrosine protein kinase Eph family","Tyrosine protein k
inase PDGFR family","Tyrosine protein kinase Tie family","CMGC protein kinase CLK family","Tyrosine protein kinase Csk family","TKL protein kinase MLK family","Tyrosine protein kinase JakA family","ST
E protein kinase STE7 family","AGC protein kinase DMPK family","Tyrosine protein kinase Ret family","Tyrosine protein kinase Met family","Tyrosine protein kinase InsR family","Tyrosine protein kinase 
Tec family","STE protein kinase SLK subfamily","CMGC protein kinase JNK subfamily","TKL protein kinase MLK subfamily","CMGC protein kinase p38 subfamily","AGC protein kinase GEK subfamily","STE protei
n kinase KHS subfamily","STE protein kinase TAO subfamily","TKL protein kinase HH498 subfamily","Tyrosine protein kinase SrcA"}

> <pathway_chembl>
{Receptors,"Ion channels",Enzymes,"Catalytic receptors","Voltage-gated ion channels","Carbonic anhydrases","Kinases (EC 2.7.x.x)","Receptor kinases","Potassium channels","STE: Homologs of yeast Steril
e 7","Sterile 11","Sterile 20 kinases","CMGC: Containing CDK",MAPK,GSK3,"CLK families","AGC: Containing PKA",PKG,"PKC families","Lipid modifying kinases","TK: Tyrosine kinase","Voltage-gated potassium
 channels","STE20 family","Mitogen-activated protein kinases (MAP kinases)","TKL: Tyrosine kinase-like","CLK family","STE7 family","DMPK family","Type II PIP kinases (1-phosphatidylinositol-5-phosphat
e 4-kinase family)","Non-receptor tyrosine kinases (nRTKs)","Receptor tyrosine kinases (RTKs)","SLK subfamily","JNK subfamily","RAF family","Mixed Lineage Kinase (MLK) family","p38 subfamily","GEK sub
family","KHS subfamily","TAO subfamily","Syk family","Type XVI RTKs: DDR (collagen receptor) family","Src family","Abl family","Type VII RTKs: Neurotrophin receptor/Trk family","Type V RTKs: FGF (fibr
oblast growth factor) receptor family","Type XIII RTKs: Ephrin receptor family","Type III RTKs: PDGFR",CSFR,Kit,"FLT3 receptor family","Type XII RTKs: TIE family of angiopoietin receptors","Csk family
","MLK subfamily","Janus kinase (JakA) family","Type XIV RTKs: RET","Type X RTKs: HGF (hepatocyte growth factor) receptor family","HH498 subfamily","Type II RTKs: Insulin receptor family","Tec family"
}

> <pathway_reactome>
{"Immune System","Extracellular matrix organization",Disease,"Muscle contraction",Metabolism,"Signal Transduction","Developmental Biology","Gene expression (Transcription)","Transport of small molecul
es","Cell Cycle","Cellular responses to external stimuli","Adaptive Immune System","Non-integrin membrane-ECM interactions","Infectious disease","Cardiac conduction","Reversible hydration of carbon di
oxide","Innate Immune System","Signaling by Receptor Tyrosine Kinases","MAPK family signaling cascades","Diseases of signal transduction by growth factor receptors and second messengers","Nervous syst
em development","RNA Polymerase II Transcription","O2/CO2 exchange in erythrocytes",Mitotic,"Cytokine Signaling in Immune system","Cellular responses to stress","Biological oxidations","Intracellular 
signaling by second messengers","Metabolism of lipids","TCR signaling","HIV Infection","Phase 3 - rapid repolarisation","Leishmania infection","Neutrophil degranulation","Signaling by NTRKs","Toll-lik
e Receptor Cascades","MAPK1/MAPK3 signaling","Signaling by FGFR in disease","Axon guidance","Signaling by KIT in disease","Oncogenic MAPK signaling","Signaling by PDGFR in disease","Generic Transcript
ion Pathway","Erythrocytes take up carbon dioxide and release oxygen","Mitotic G1 phase and G1/S transition","Signaling by Insulin receptor","Signaling by Interleukins","Cellular response to hypoxia",
"Phase I - Functionalization of compounds","M Phase","PIP3 activates AKT signaling","Signaling by MST1","Phospholipid metabolism","Interferon Signaling","Generation of second messenger molecules","Hos
t Interactions of HIV factors","Parasite infection","Signaling by NTRK1 (TRKA)","Toll Like Receptor 5 (TLR5) Cascade","RAF/MAP kinase cascade","Signaling by FGFR2 in disease","EPH-Ephrin signaling","D
rug resistance of KIT mutants","Signaling by ROBO receptors","Signaling by RAS mutants","Drug resistance of PDGFR mutants","Transcriptional regulation by RUNX1","Leishmania parasite growth and surviva
l","G1 Phase","Insulin receptor signalling cascade","Interleukin-12 family signaling","Regulation of gene expression by Hypoxia-inducible Factor","Transcriptional Regulation by TP53","Transcriptional 
Regulation by VENTX","Signaling by NTRK3 (TRKC)","RET signaling","Mitotic Metaphase and Anaphase","Semaphorin interactions","Negative regulation of the PI3K/AKT network","PTEN Regulation","PI Metaboli
sm","Interferon alpha/beta signaling","Signaling by FGFR1 in disease","The role of Nef in HIV-1 replication and disease pathogenesis","Leishmania phagocytosis","Activation of TRKA receptors","MyD88 ca
scade initiated on plasma membrane","Negative regulation of MAPK pathway","FGFR2 mutant receptor activation","EPHB-mediated forward signaling","Dasatinib-resistant KIT mutants","Role of ABL in ROBO-SL
IT signaling","EPHA-mediated growth cone collapse","Signaling downstream of RAS mutants","Signalling to ERKs","Imatinib-resistant PDGFR mutants","RUNX1 regulates transcription of genes involved in BCR
 signaling","Anti-inflammatory response favouring Leishmania parasite infection","Cyclin D associated events in G1","IRS-mediated signalling","Signalling to ERK5","Interleukin-12 signaling","Regulatio
n of TP53 Activity","Activated NTRK3 signals through PI3K","Mitotic Anaphase","Sema4D in semaphorin signaling",PI5P,"PP2A and IER3 Regulate PI3K/AKT Signaling","Regulation of PTEN stability and activi
ty","Synthesis of PIPs at the plasma membrane","Regulation of IFNA signaling","FGFR1 mutant receptor activation","Nef and signal transduction","FCGR3A-mediated phagocytosis","NGF-independant TRKA acti
vation","MAP kinase activation","Negative feedback regulation of MAPK pathway","Activated point mutants of FGFR2","Signalling to RAS","FCGR3A-mediated IL10 synthesis","Prolonged ERK activation events"
,"PI3K Cascade","Gene and protein expression by JAK-STAT signaling after Interleukin-12 stimulation","Regulation of TP53 Activity through Acetylation","Nef-mediates down modulation of cell surface rec
eptors by recruiting them to clathrin adapters","Separation of Sister Chromatids","Sema4D mediated inhibition of cell attachment and migration","Signaling by activated point mutants of FGFR1","MAPK ta
rgets/ Nuclear events mediated by MAP kinases","p38MAPK events","ARMS-mediated activation","PI5P Regulates TP53 Acetylation","Nef Mediated CD4 Down-regulation","Activation of the AP-1 family of transc
ription factors"}

> <broad_targets>
{ABL1,KIT}

> <broad_moa>
{"Abl kinase inhibitor","Bcr-Abl kinase inhibitor"}

> <synonyms>
{Nilotinib,641571-10-0,641571100,Tasigna,AMN107,"AMN 107",AMN-107,Nilotinib(AMN-107),Nilotinib(AMN107),"Nilotinib (AMN-107)","Nilotinib (AMN107)","Nilotinib free base",UNII-F41401512X,UNIIF41401512X,C
HEMBL255863,C28H22F3N7O,CHEBI:52172,Nilotinib-d6,Nilotinibd6,"641571-10-0 (free base)","641571100 (free base)",MFCD09833716,NSC747599,F41401512X,T1524,747599,S1033,"NSC 747599",nilotinib,NILOTINIB}

> <pdid>
PD003312

> <targets>
{Src-bcr-Abl,BCR-ABL,SRC}

> <classes>
{"BCR-ABL/c-kit/PDGF inhibitor"}

> <pubchem_cids>
{644241}

$$$$
NCI_AOD5_2014
  SciTegic11012412592D

 19 21  0  0  0  0            999 V2000
    2.5981   -1.5000    0.0000 N   0  0
    1.2990   -0.7500    0.0000 C   0  0
    1.2990    0.7500    0.0000 N   0  0
    0.0000    1.5000    0.0000 C   0  0
    0.0000    3.0000    0.0000 Cl  0  0
   -1.2990    0.7500    0.0000 N   0  0
   -1.2990   -0.7500    0.0000 C   0  0
   -2.4133   -1.7530    0.0000 N   0  0
   -1.8032   -3.1233    0.0000 C   0  0
   -0.3114   -2.9665    0.0000 N   0  0
    0.0000   -1.5000    0.0000 C   0  0
   -3.8813   -1.4408    0.0000 C   0  0
   -4.5721   -0.1292    0.0000 C   0  0
   -6.0471   -0.4022    0.0000 C   0  0
   -7.1349    0.6306    0.0000 O   0  0
   -6.2433   -1.8893    0.0000 C   0  0
   -7.5586   -2.6066    0.0000 C   0  0
   -7.5961   -4.1061    0.0000 O   0  0
   -4.8896   -2.5354    0.0000 O   0  0
  1  2  1  0
  2  3  2  0
  3  4  1  0
  4  5  1  0
  4  6  2  0
  6  7  1  0
  7  8  1  0
  8  9  1  0
  9 10  2  0
 10 11  1  0
 11  2  1  0
 11  7  2  0
  8 12  1  0
 12 13  1  0
 13 14  1  0
 14 15  1  0
 14 16  1  0
 16 17  1  0
 17 18  1  0
 16 19  1  0
 19 12  1  0
M  END
> <name>
NCI_AOD5_2014

> <id>
2639

> <plate>
NCI_V5_B

> <well>
A08

> <supplier_cmpd_name>
Cladribine

> <ctcr_id>
1588

> <supplier_cmpd_id>
105014

> <smiles>
Nc1nc(Cl)nc2n(cnc12)C3CC(O)C(CO)O3

> <pd_targets>
{NR5A1,ADORA2A,ADORA1,LMNA,RXFP1,RORC,HTT,TP53,RRM1,RRM2,RRM2B,POLA1,POLE,POLE2,POLE3,POLE4,PNP,HSF1,ADCY5}

> <pathway_gtopdb>
{"Transcription factor","Membrane receptor","Other nuclear protein","Unclassified protein",Enzyme,"Other cytosolic protein","Nuclear receptor","Family A G protein-coupled receptor",Oxidoreductase,Tran
sferase,"Nuclear hormone receptor subfamily 5","Small molecule receptor (family A GPCR)","Peptide receptor (family A GPCR)","Nuclear hormone receptor subfamily 1","Nuclear hormone receptor subfamily 5
 group A","Nucleotide-like receptor (family A GPCR)","Relaxin-like peptide receptor (family A GPCR)","Nuclear hormone receptor subfamily 1 group F","Nuclear hormone receptor subfamily 5 group A member
 1","Adenosine receptor","Relaxin receptor","Nuclear hormone receptor subfamily 1 group F member 3",Lyase}

> <pathway_chembl>
{Receptors,Enzymes,"Nuclear hormone receptors","G protein-coupled receptors","1.17.4.1 Ribonucleoside-diphosphate reductases","2.4.2.1 Purine-nucleoside phosphorylase","5A. Fushi tarazu F1-like recept
ors","Adenosine receptors","Relaxin family peptide receptors","1F. Retinoic acid-related orphans","Cyclic nucleotide turnover/signalling","Adenylyl cyclases (ACs)"}

> <pathway_reactome>
{"Metabolism of proteins",Disease,"Signal Transduction","Cell Cycle","Gene expression (Transcription)",Metabolism,"Cellular responses to external stimuli","Post-translational protein modification","In
fectious disease","Signaling by GPCR",Mitotic,"RNA Polymerase II Transcription","Cell Cycle Checkpoints","Metabolism of nucleotides","Cellular responses to stress",SUMOylation,"Leishmania infection","
GPCR ligand binding","M Phase","Generic Transcription Pathway","G1/S DNA Damage Checkpoints","Interconversion of nucleotide di- and triphosphates","Mitotic G1 phase and G1/S transition","Nucleobase ca
tabolism","Cellular response to heat stress","SUMO E3 ligases SUMOylate target proteins","Leishmania parasite growth and survival","Class A/1 (Rhodopsin-like receptors)","Mitotic Metaphase and Anaphas
e","Transcriptional regulation by RUNX3","Transcriptional Regulation by MECP2","p53-Dependent G1/S DNA damage checkpoint","G1/S Transition","Transcriptional Regulation by TP53","Purine catabolism","HS
F1-dependent transactivation","SUMOylation of intracellular receptors","Anti-inflammatory response favouring Leishmania parasite infection","Nucleotide-like (purinergic) receptors","Mitotic Anaphase",
"RUNX3 Regulates Immune Response and Cell Migration","Regulation of MECP2 expression and activity","p53-Dependent G1 DNA Damage Response","G1/S-Specific Transcription","TP53 Regulates Metabolic Genes"
,"E2F mediated regulation of DNA replication","Activation of the pre-replicative complex","Attenuation phase","ADORA2B mediated anti-inflammatory cytokines production","Adenosine P1 receptors","Nuclea
r Envelope (NE) Reassembly","Stabilization of p53","Inhibition of replication initiation of damaged DNA by RB1/E2F1","Initiation of Nuclear Envelope (NE) Reformation","Autodegradation of the E3 ubiqui
tin ligase COP1","Neuronal System","Transmission across Chemical Synapses","Neurotransmitter receptors and postsynaptic signal transmission","GABA receptor activation","GABA B receptor activation","Ac
tivation of GABAB receptors","Adenylate cyclase inhibitory pathway"}

> <broad_targets>
{ADA,PNP,POLA1,POLE,POLE2,POLE3,POLE4,RRM1,RRM2,RRM2B}

> <broad_moa>
{"adenosine deaminase inhibitor","ribonucleotide reductase inhibitor"}

> <synonyms>
{CHEMBL17639,NSC105014,Leustat,5542-92-7,5542927,2CdA,SMR000857123,NCGC00018167-03,NCGC0001816703,S1199,"Cladribine Impurity D",2-Chloro-2-deoxyadenosine,2Chloro2deoxyadenosine,cid_1546,cid1546,cid-15
46,"cid 1546",NCIOpen2_007300,NCIOpen2007300,NCIOpen2-007300,"NCIOpen2 007300",NCIOpen2_007340,NCIOpen2007340,NCIOpen2-007340,"NCIOpen2 007340",MLS001332517,MLS001332518,SCHEMBL1820786,DTXSID50274315,
HMS2230B17,HMS337,105014,"NSC 105014
NSC 105014",Cladribine}

> <pdid>
PD003181

> <targets>
{}

> <classes>
{"Purine Antimetabolite"}

> <pubchem_cids>
{1546}

$$$$
NCI_AOD5_2014
  SciTegic11012412592D

 41 44  0  0  1  0            999 V2000
    2.6640   -0.1280    0.0000 C   0  0
    1.2990   -0.7500    0.0000 C   0  0  2  0  0  0
    1.2990    0.7500    0.0000 C   0  0
    0.0000    1.5000    0.0000 C   0  0
   -1.2990    0.7500    0.0000 C   0  0  1  0  0  0
   -1.2990   -0.7500    0.0000 C   0  0  1  0  0  0
   -2.5981   -1.5000    0.0000 C   0  0  2  0  0  0
   -2.5950   -3.0008    0.0000 C   0  0
   -1.2942   -3.7494    0.0000 C   0  0
   -1.2911   -5.2502    0.0000 C   0  0
    0.0098   -5.9988    0.0000 C   0  0
    0.0129   -7.4996    0.0000 C   0  0
    1.3137   -8.2482    0.0000 C   0  0
    1.3168   -9.7490    0.0000 C   0  0
    2.6176  -10.4975    0.0000 C   0  0
    2.6207  -11.9984    0.0000 C   0  0
    3.9215  -12.7469    0.0000 S   0  0
    5.2192  -11.9946    0.0000 O   0  0
    3.9246  -14.2477    0.0000 C   0  0
    5.2254  -14.9963    0.0000 C   0  0
    5.2285  -16.4971    0.0000 C   0  0
    6.5293  -17.2457    0.0000 C   0  0
    6.5270  -15.7457    0.0000 F   0  0
    7.8271  -16.4934    0.0000 F   0  0
    6.5324  -18.7465    0.0000 C   0  0
    7.8325  -19.4946    0.0000 F   0  0
    6.5348  -20.2465    0.0000 F   0  0
    5.2347  -19.4988    0.0000 F   0  0
   -3.8971   -0.7500    0.0000 C   0  0
   -3.8971    0.7500    0.0000 C   0  0
   -5.1962    1.5000    0.0000 C   0  0
   -5.1962    3.0000    0.0000 C   0  0
   -6.4952    3.7500    0.0000 O   0  0
   -3.8971    3.7500    0.0000 C   0  0
   -2.5981    3.0000    0.0000 C   0  0
   -2.5981    1.5000    0.0000 C   0  0
    0.0000   -1.5000    0.0000 C   0  0  2  0  0  0
    0.3326   -2.9571    0.0000 C   0  0
    1.8253   -3.1044    0.0000 C   0  0
    2.4266   -1.7302    0.0000 C   0  0  2  0  0  0
    3.8900   -1.4008    0.0000 O   0  0
  2  1  1  1
  2  3  1  0
  3  4  1  0
  5  4  1  1
  6  5  1  6
  6  7  1  0
  7  8  1  6
  8  9  1  0
  9 10  1  0
 10 11  1  0
 11 12  1  0
 12 13  1  0
 13 14  1  0
 14 15  1  0
 15 16  1  0
 16 17  1  0
 17 18  2  0
 17 19  1  0
 19 20  1  0
 20 21  1  0
 21 22  1  0
 22 23  1  0
 22 24  1  0
 22 25  1  0
 25 26  1  0
 25 27  1  0
 25 28  1  0
  7 29  1  0
 29 30  1  0
 30 31  2  0
 31 32  1  0
 32 33  1  0
 32 34  2  0
 34 35  1  0
 35 36  2  0
 36  5  1  0
 36 30  1  0
  6 37  1  0
 37  2  1  0
 37 38  1  1
 38 39  1  0
 39 40  1  0
 40  2  1  0
 40 41  1  1
M  END
> <name>
NCI_AOD5_2014

> <id>
2640

> <plate>
NCI_V5_B

> <well>
A09

> <supplier_cmpd_name>
Fulvestrant

> <ctcr_id>
4559

> <supplier_cmpd_id>
719276

> <smiles>
C[C@]12CC[C@H]3[C@@H]([C@H](CCCCCCCCC[S](=O)CCCC(F)(F)C(F)(F)F)Cc4cc(O)ccc34)[C@@H]1CC[C@@H]2O

> <pd_targets>
{GPER1,ESR1,ESR2,NR1H4,EPHX2,BLA,PGR,NR1I2,ESRRA}

> <pathway_gtopdb>
{"Membrane receptor","Transcription factor",Enzyme,"Family A G protein-coupled receptor","Nuclear receptor",Protease,Hydrolase,"Small molecule receptor (family A GPCR)","Nuclear hormone receptor subfa
mily 3","Nuclear hormone receptor subfamily 1","Serine protease","Lipid-like ligand receptor (family A GPCR)","Nuclear hormone receptor subfamily 3 group A","Nuclear hormone receptor subfamily 1 group
 H","Serine protease SC clan","Nuclear hormone receptor subfamily 3 group C","Nuclear hormone receptor subfamily 1 group I","Nuclear hormone receptor subfamily 3 group B","Steroid-like ligand receptor
","Nuclear hormone receptor subfamily 3 group A member 1","Nuclear hormone receptor subfamily 3 group A member 2","Nuclear hormone receptor subfamily 1 group H member 4","Serine protease S33 family","
Nuclear hormone receptor subfamily 3 group C member 3","Nuclear hormone receptor subfamily 1 group I member 2","Nuclear hormone receptor subfamily 3 group B member 1"}

> <pathway_chembl>
{Receptors,Enzymes,"G protein-coupled receptors","Nuclear hormone receptors",Hydrolases,"G protein-coupled estrogen receptor","Steroid hormone receptors","1H. Liver X receptor-like receptors","1I. Vit
amin D receptor-like receptors","3B. Estrogen-related receptors","3A. Estrogen receptors","3C. 3-Ketosteroid receptors"}

> <pathway_reactome>
{"Signal Transduction","Gene expression (Transcription)",Metabolism,"Metabolism of proteins","Signaling by GPCR","RNA Polymerase II Transcription","Intracellular signaling by second messengers","Metab
olism of lipids","Post-translational protein modification","GPCR ligand binding","Generic Transcription Pathway","PIP3 activates AKT signaling","Metabolism of steroids","Biosynthesis of specialized pr
oresolving mediators (SPMs)",SUMOylation,"Class A/1 (Rhodopsin-like receptors)","Transcriptional regulation by RUNX1","Negative regulation of the PI3K/AKT network","Bile acid and bile salt metabolism"
,"Biosynthesis of DHA-derived SPMs","SUMO E3 ligases SUMOylate target proteins","Transcriptional regulation by RUNX2","Peptide ligand-binding receptors","RUNX1 regulates estrogen receptor mediated tra
nscription",PI5P,"PP2A and IER3 Regulate PI3K/AKT Signaling","Synthesis of bile acids and bile salts","Biosynthesis of maresins","SUMOylation of intracellular receptors","Regulation of RUNX2 expressio
n and activity","Synthesis of bile acids and bile salts via 27-hydroxycholesterol"}

> <broad_targets>
{ESR1,ESR2,GPER1}

> <broad_moa>
{"estrogen receptor antagonist"}

> <synonyms>
{RESTW142,Fulvestrant,129453-61-8,129453618,Faslodex,"Ici 182780",ICI-182780,ICI182780,"ICI 182,780","ZM 182780",ZM-182780,ZM182780,ZD-9238,ZD9238,"ZD 182780","Fulvestrant (Faslodex)","ZD 9238",CHEMBL
1358,C32H47F5O3S,CHEBI:31638,DSSTox_CID_2369,DSSToxCID2369,DSSTox-CID-2369,"DSSTox CID 2369",DSSTox_RID_76561,DSSToxRID76561,DSSTox-RID-76561,"DSSTox RID 76561",DSSTox_GSID_22369,DSSToxGSID22369,DSSTo
x-GSID-22369,"DSSTox GSID 22369",F,T2146,719276,S1191,nan,Prestw-1424,"NSC 719276",fulvestrant}

> <pdid>
PD002815

> <targets>
{"","Estrogen/progestogen Receptor"}

> <classes>
{"Endocrinology & Hormones","Estrogen Receptor Antagonists"}

> <pubchem_cids>
{104741}

$$$$
NCI_AOD5_2014
  SciTegic11012412592D

 39 42  0  0  1  0            999 V2000
    6.3990   -6.3774    0.0000 Cl  0  0
    3.8983   -0.7459    0.0000 C   0  0
    2.6003   -1.4977    0.0000 O   0  0
    1.2990   -0.7500    0.0000 C   0  0
    1.2990    0.7500    0.0000 C   0  0
    0.0000    1.5000    0.0000 C   0  0
   -1.2990    0.7500    0.0000 C   0  0
   -1.2990   -0.7500    0.0000 C   0  0
   -2.5981   -1.5000    0.0000 C   0  0
   -3.8971   -0.7500    0.0000 O   0  0
   -2.5981   -3.0000    0.0000 C   0  0
   -3.8971   -3.7500    0.0000 C   0  0
   -5.1961   -3.0000    0.0000 O   0  0
   -3.8971   -5.2500    0.0000 C   0  0
   -5.1961   -6.0000    0.0000 C   0  0
   -5.1961   -7.5000    0.0000 C   0  0  2  0  0  0
   -6.4764   -6.7185    0.0000 O   0  0
   -3.8971   -8.2500    0.0000 C   0  0
   -2.5980   -7.5000    0.0000 C   0  0  2  0  0  0
   -1.2998   -8.2531    0.0000 O   0  0
   -1.3019   -9.7539    0.0000 C   0  0
   -0.0055  -10.5085    0.0000 C   0  0
   -0.0107  -12.0085    0.0000 C   0  0
    1.2858  -12.7630    0.0000 N   0  0
   -1.3123  -12.7540    0.0000 C   0  0
   -1.3175  -14.2540    0.0000 O   0  0
   -2.6087  -11.9995    0.0000 C   0  0
   -3.9104  -12.7450    0.0000 C   0  0
   -2.6036  -10.4995    0.0000 O   0  0
   -2.5980   -6.0000    0.0000 C   0  0
   -1.2990   -5.2500    0.0000 C   0  0
    0.0000   -6.0000    0.0000 O   0  0
   -1.2990   -3.7500    0.0000 C   0  0
    0.0000   -3.0000    0.0000 C   0  0
    1.2991   -3.7500    0.0000 O   0  0
    0.0000   -1.5000    0.0000 C   0  0
   -5.1596   -8.9800    0.0000 C   0  0
   -6.4587   -9.7299    0.0000 C   0  0
   -3.8609   -9.7306    0.0000 O   0  0
  2  3  1  0
  3  4  1  0
  4  5  2  0
  5  6  1  0
  6  7  2  0
  7  8  1  0
  8  9  1  0
  9 10  2  0
  9 11  1  0
 11 12  2  0
 12 13  1  0
 12 14  1  0
 14 15  1  0
 15 16  1  0
 16 17  1  1
 16 18  1  0
 18 19  1  0
 19 20  1  1
 20 21  1  0
 21 22  1  0
 22 23  1  0
 23 24  1  0
 23 25  1  0
 25 26  1  0
 25 27  1  0
 27 28  1  0
 27 29  1  0
 29 21  1  0
 19 30  1  0
 30 14  2  0
 30 31  1  0
 31 32  1  0
 31 33  2  0
 33 11  1  0
 33 34  1  0
 34 35  2  0
 34 36  1  0
 36  4  1  0
 36  8  2  0
 16 37  1  0
 37 38  1  0
 37 39  2  0
M  END
> <name>
NCI_AOD5_2014

> <id>
2641

> <plate>
NCI_V5_B

> <well>
A10

> <supplier_cmpd_name>
Daunorubicin hydrochloride

> <ctcr_id>
1690

> <supplier_cmpd_id>
82151

> <smiles>
Cl.COc1cccc2C(=O)c3c(O)c4C[C@](O)(C[C@H](OC5CC(N)C(O)C(C)O5)c4c(O)c3C(=O)c12)C(C)=O

> <pd_targets>
{HIF1A,MAPT,RORC,BLM,FTL,ALD,KMT2A,MEN1,HSP90AA1,HSP90AB1,RECQL,USP2,TSHR,MAPK1,NPSR1,FFP,S100A4,BRCA1,POLB,THRB,CYP3A4,LEF,MMP2,NR5A1,ALDH1A1,TP53,CYP1A2,KDM4E,HTT,HSD17B10,APEX1,ABCC1,FPR2,PAX8,ABCB
1,ABCC2,TOP2A,TOP2B}

> <pathway_gtopdb>
{"Unclassified protein","Transcription factor","Other cytosolic protein",Enzyme,"Epigenetic regulator","Membrane receptor",Transporter,"Nuclear receptor",Reader,Protease,"Family A G protein-coupled re
ceptor",Kinase,Transferase,"Cytochrome P450",Oxidoreductase,Eraser,"Primary active transporter",Isomerase,"Nuclear hormone receptor subfamily 1",Bromodomain,"Cysteine protease","Peptide receptor (fami
ly A GPCR)","Protein Kinase","Cytochrome P450 family 3","Metallo protease","Nuclear hormone receptor subfamily 5","Cytochrome P450 family 1","Lysine demethylase","ATP-binding cassette","Nuclear hormon
e receptor subfamily 1 group F","Cysteine protease CA clan","Glycohormone receptor","CMGC protein kinase group","Short peptide receptor (family A GPCR)","Nuclear hormone receptor subfamily 1 group A",
"Cytochrome P450 family 3A","Metallo protease MAE clan","Metallo protease MAM clan","Nuclear hormone receptor subfamily 5 group A","Cytochrome P450 family 1A","Jumonji domain-containing","ABCC subfami
ly","N-formyl methionyl peptide receptor","ABCB subfamily","Nuclear hormone receptor subfamily 1 group F member 3","Cysteine protease C19 family","CMGC protein kinase MAPK family","Neuropeptide recept
or","Nuclear hormone receptor subfamily 1 group A member 2","Cytochrome P450 3A4","Metallo protease M34 family","Metallo protease M10A subfamily","Nuclear hormone receptor subfamily 5 group A member 1
","Cytochrome P450 1A1","CMGC protein kinase ERK1"}

> <pathway_chembl>
{Receptors,Enzymes,"Other protein targets",Transporters,"Nuclear hormone receptors","Chromatin modifying enzymes","Peptidases and proteinases","G protein-coupled receptors","Kinases (EC 2.7.x.x)","Cyt
ochrome P450","Heat shock proteins","ATP-binding cassette transporter family","DNA topoisomerases","1F. Retinoic acid-related orphans","2.1.1.43 Histone methyltransferases (HMTs)","CA: Cysteine (C) Pe
ptidases","Glycoprotein hormone receptors","CMGC: Containing CDK",MAPK,GSK3,"CLK families","Neuropeptide S receptor","1A. Thyroid hormone receptors","CYP3 family","MA: Metallo (M) Peptidases","5A. Fus
hi tarazu F1-like receptors","CYP1 family","1.14.11.- Histone demethylases","ABCC subfamily","Formylpeptide receptors","ABCB subfamily","C19: Ubiquitin-specific protease","Mitogen-activated protein ki
nases (MAP kinases)","M10: Matrix metallopeptidase","ERK subfamily"}

> <pathway_reactome>
{"Cellular responses to external stimuli","Neuronal System","Gene expression (Transcription)","DNA Repair","Vesicle-mediated transport",Disease,"Immune System","Metabolism of proteins",Metabolism,"Dev
elopmental Biology","Cell Cycle","Signal Transduction","Cellular responses to stress","Transmission across Chemical Synapses","RNA Polymerase II Transcription","DNA Double-Strand Break Repair","Membra
ne Trafficking","Infectious disease","Innate Immune System","Base Excision Repair","Post-translational protein modification","Metabolism of lipids","Nervous system development",Mitotic,"Biological oxi
dations","Cell Cycle Checkpoints","Metabolism of amino acids and derivatives","Signaling by GPCR","Abacavir transport and metabolism","Disorders of transmembrane transporters","Cellular response to hy
poxia","Neurotransmitter receptors and postsynaptic signal transmission","Generic Transcription Pathway","Homology Directed Repair","trans-Golgi Network Vesicle Budding","Leishmania infection","Toll-l
ike Receptor Cascades","Resolution of Abasic Sites (AP sites)",SUMOylation,"Biosynthesis of specialized proresolving mediators (SPMs)","Uptake and actions of bacterial toxins","Axon guidance","Mitotic
 G2-G2/M phases","Phase I - Functionalization of compounds","G1/S DNA Damage Checkpoints","Branched-chain amino acid catabolism","Fatty acid metabolism","GPCR ligand binding","Abacavir transmembrane t
ransport","ABC transporter disorders","Mitotic G1 phase and G1/S transition","Oxygen-dependent proline hydroxylation of Hypoxia-inducible Factor Alpha","Activation of NMDA receptors and postsynaptic e
vents","Transcriptional regulation by RUNX3","HDR through Homologous Recombination (HRR) or Single Strand Annealing (SSA)","Golgi Associated Vesicle Biogenesis","Transcriptional regulation by RUNX1","
Transcriptional Regulation by TP53","Leishmania parasite growth and survival","Toll Like Receptor 5 (TLR5) Cascade","Resolution of AP sites via the multiple-nucleotide patch replacement pathway","SUMO
 E3 ligases SUMOylate target proteins","Biosynthesis of DHA-derived SPMs","Uptake and function of anthrax toxins","EPH-Ephrin signaling","G2/M Transition","Ethanol oxidation","p53-Dependent G1/S DNA d
amage checkpoint","Cytochrome P450 - arranged by substrate type","Transcriptional Regulation by MECP2","Arachidonic acid metabolism","Class A/1 (Rhodopsin-like receptors)","Defective ABCC2 causes DJS"
,"G0 and Early G1","Post NMDA receptor activation events","RUNX3 Regulates Immune Response and Cell Migration","HDR through Homologous Recombination (HRR)","RUNX1 regulates genes involved in megakaryo
cyte differentiation and platelet function","Regulation of TP53 Activity","Anti-inflammatory response favouring Leishmania parasite infection","MyD88 cascade initiated on plasma membrane","PCNA-Depend
ent Long Patch Base Excision Repair","SUMOylation of intracellular receptors","Biosynthesis of maresins","EPH-ephrin mediated repulsion of cells","Centrosome maturation","p53-Dependent G1 DNA Damage R
esponse",Xenobiotics,"Regulation of MECP2 expression and activity","Synthesis of Leukotrienes (LT) and Eoxins (EX)","Peptide ligand-binding receptors","Transcription of E2F targets under negative cont
rol by DREAM complex","SUMOylation of DNA replication proteins","Activation of AMPK downstream of NMDARs","Homologous DNA Pairing and Strand Exchange","Regulation of TP53 Expression and Degradation","
ADORA2B mediated anti-inflammatory cytokines production","MAP kinase activation","Biosynthesis of maresin-like SPMs","Loss of proteins required for interphase microtubule organization from the centros
ome","Stabilization of p53","Aromatic amines can be N-hydroxylated or N-dealkylated by CYP1A2","Formyl peptide receptors bind formyl peptides and many other ligands","Presynaptic phase of homologous D
NA pairing and strand exchange","Regulation of TP53 Degradation","MAPK targets/ Nuclear events mediated by MAP kinases","Loss of Nlp from mitotic centrosomes","Autodegradation of the E3 ubiquitin liga
se COP1","ERK/MAPK targets","ERKs are inactivated"}

> <broad_targets>
{TOP2A,TOP2B}

> <broad_moa>
{"RNA synthesis inhibitor","topoisomerase inhibitor"}

> <synonyms>
{"DAUNORUBICIN HYDROCHLORIDE",Daunoblastin,Ondena,"Antibiotics from Streptomyces coeruleorubidus","DAUNORUBICIN HCL","Rubidomycin hydrochloride","Daunomycin, hydrochloride","Daunomycin, HCl",NSC83142,
Daunorubicin,Hydrochlorid,82151,NSC82151,"NSC 82151
NSC 82151","Daunorubicin hydrochloride"}

> <pdid>
PD003035

> <targets>
{}

> <classes>
{"Topoisomerase II Inhibitors"}

> <pubchem_cids>
{3085106,58899167,5351602,68601330}

$$$$
NCI_AOD5_2014
  SciTegic11012412592D

  5  4  0  0  0  0            999 V2000
    1.3000    2.2500    0.0000 N   0  0
    1.3000    0.7500    0.0000 Pt  0  0
    1.3000   -0.7500    0.0000 N   0  0
    0.0007    0.0004    0.0000 Cl  0  0
    2.5993    0.0004    0.0000 Cl  0  0
  1  2  1  0
  2  3  1  0
  2  4  1  0
  2  5  1  0
M  END
> <name>
NCI_AOD5_2014

> <id>
2642

> <plate>
NCI_V5_B

> <well>
A11

> <supplier_cmpd_name>
Cisplatin

> <ctcr_id>
1976

> <supplier_cmpd_id>
119875

> <smiles>
N[Pt](N)(Cl)Cl

> <pd_targets>
.

> <pathway_gtopdb>
.

> <pathway_chembl>
.

> <pathway_reactome>
.

> <broad_targets>
{XIAP}

> <broad_moa>
{"DNA alkylating agent","DNA synthesis inhibitor"}

> <synonyms>
{"azanide; dichloroplatinum(2+)","azanide; bis(chloranyl)platinum(2+)",FT-0623946,FT0623946,A809760,AKOS027470117,cis-Diaminedichloroplatinum,cisDiaminedichloroplatinum,cis-Diamminedichlorplatine,cisD
iamminedichlorplatine,"cis-Dichlorodiamine platinum","cisDichlorodiamine platinum","Platinum, diamminedichloro-","Platinum, diamminedichloro",azanide;dichloroplatinum,119875,NSC119875,S1166,"NSC 11987
5
NSC 119875",Cisplatin}

> <pdid>
PD021732

> <targets>
{DNA/RNA Synthesis,Autophagy,DNA Alkylator/Crosslinker,Ferroptosis}

> <classes>
{DNA Damage,Radiation-Sensitizing Agents,Apoptosis,Autophagy,Cell Cycle/DNA Damage}

> <pubchem_cids>
{24191118,86820626,2767}

$$$$
NCI_AOD5_2014
  SciTegic11012412592D

 26 28  0  0  0  0            999 V2000
    2.5981   -1.5000    0.0000 C   0  0
    1.2990   -0.7500    0.0000 C   0  0
    1.2990    0.7500    0.0000 C   0  0
    0.0000    1.5000    0.0000 C   0  0
   -1.2990    0.7500    0.0000 C   0  0
   -1.2990   -0.7500    0.0000 C   0  0
    0.0000   -1.5000    0.0000 C   0  0
   -2.5987    1.5004    0.0000 C   0  0
   -3.9492    0.8772    0.0000 C   0  0
   -4.9546    1.9903    0.0000 C   0  0
   -4.2067    3.2905    0.0000 N   0  0
   -2.7390    2.9810    0.0000 N   0  0
   -1.6193    3.9803    0.0000 C   0  0
   -0.1673    3.6256    0.0000 C   0  0
    0.8689    4.7101    0.0000 C   0  0
    0.4478    6.1498    0.0000 C   0  0
   -1.0096    6.5049    0.0000 C   0  0
   -2.0458    5.4204    0.0000 C   0  0
    1.4846    7.2349    0.0000 S   0  0
    1.0630    8.6745    0.0000 N   0  0
    2.9422    6.8807    0.0000 O   0  0
    2.5203    8.3200    0.0000 O   0  0
   -6.4444    1.8313    0.0000 C   0  0
   -7.0532    0.4604    0.0000 F   0  0
   -7.3276    3.0437    0.0000 F   0  0
   -7.9360    1.6729    0.0000 F   0  0
  1  2  1  0
  2  3  2  0
  3  4  1  0
  4  5  2  0
  5  6  1  0
  6  7  2  0
  7  2  1  0
  5  8  1  0
  8  9  2  0
  9 10  1  0
 10 11  2  0
 11 12  1  0
 12  8  1  0
 12 13  1  0
 13 14  2  0
 14 15  1  0
 15 16  2  0
 16 17  1  0
 17 18  2  0
 18 13  1  0
 16 19  1  0
 19 20  1  0
 19 21  2  0
 19 22  2  0
 10 23  1  0
 23 24  1  0
 23 25  1  0
 23 26  1  0
M  END
> <name>
NCI_AOD5_2014

> <id>
2643

> <plate>
NCI_V5_B

> <well>
B02

> <supplier_cmpd_name>
Celecoxib

> <ctcr_id>
1124

> <supplier_cmpd_id>
719627

> <smiles>
Cc1ccc(cc1)c2cc(nn2c3ccc(cc3)[S](N)(=O)=O)C(F)(F)F

> <pd_targets>
{PTGS2,CA2,CA9,CA4,CA3,PTGS1,CA15,MTCA1,NCE103,LMNA,TSHR,CA1,CA7,PTGES,MT-CO2,CA14,CA12,CYP2C9,CA5A,CA6,CDC42,RAC1,CA13,HDAC1,HDAC10,HDAC11,HDAC2,HDAC3,HDAC4,HDAC5,HDAC6,HDAC7,HDAC8,HDAC9,MT-CO1,CA5B,
1272966,MTCA2,PGR,PDPK1,ALOX5,PDE5A,RAB2A,MAPK14,RAB7A,CYP3A4,EPHX2,ADRA2B,ADRB3,CACNA1C,SLC6A4,ADORA3,SLC6A2,SLC6A3,CYP2D6,CDH11}

> <pathway_gtopdb>
{Enzyme,"Other nuclear protein","Membrane receptor",Transporter,"Epigenetic regulator","Transcription factor","Ion channel",Oxidoreductase,Lyase,"Family A G protein-coupled receptor",Isomerase,"Primar
y active transporter","Cytochrome P450",Hydrolase,Eraser,Protease,"Nuclear receptor",Kinase,Phosphodiesterase,"Voltage-gated ion channel","Electrochemical transporter","Peptide receptor (family A GPCR
)","Oxidoreduction-driven transporters","Cytochrome P450 family 2","Histone deacetylase","Cysteine protease","Nuclear hormone receptor subfamily 3","Protein Kinase","Phosphodiesterase 5","Cytochrome P
450 family 3","Serine protease","Small molecule receptor (family A GPCR)","Voltage-gated calcium channel","SLC superfamily of solute carriers","Glycohormone receptor","Cytochrome P450 family 2C","HDAC
 class I","Cysteine protease CA clan","Nuclear hormone receptor subfamily 3 group C","AGC protein kinase group","Phosphodiesterase 5A","CMGC protein kinase group","Cytochrome P450 family 3A","Serine p
rotease SC clan","Monoamine receptor","SLC06 neurotransmitter transporter family","HDAC class IIb","Nucleotide-like receptor (family A GPCR)","Cytochrome P450 family 2D","Cytochrome P450 2C9","Cystein
e protease C1A family","Nuclear hormone receptor subfamily 3 group C member 3","AGC protein kinase PDK1 subfamily","CMGC protein kinase MAPK family","Cytochrome P450 3A4","Serine protease S33 family",
"Adrenergic receptor","Dopamine receptor","Adenosine receptor","Cytochrome P450 2D6","CMGC protein kinase p38 subfamily"}

> <pathway_chembl>
{Enzymes,Receptors,"Ion channels",Transporters,"Eicosanoid turnover","Carbonic anhydrases","G protein-coupled receptors","Cytochrome P450","Kinases (EC 2.7.x.x)","Cyclic nucleotide turnover/signalling
",Hydrolases,"Voltage-gated ion channels","Chromatin modifying enzymes","SLC superfamily of solute carriers",Cyclooxygenase,"Glycoprotein hormone receptors","Prostaglandin synthases","CYP2 family: dru
g metabolising subset","AGC: Containing PKA",PKG,"PKC families",Lipoxygenases,Phosphodiesterases,3',"5'-cyclic nucleotide (PDEs)","CMGC: Containing CDK",MAPK,GSK3,"CLK families","CYP3 family",Adrenoce
ptors,"Voltage-gated calcium channels","3.5.1.- Histone deacetylases (HDACs)","Dopamine receptors","SLC6 neurotransmitter transporter family","Adenosine receptors","PDK1 family","Mitogen-activated pro
tein kinases (MAP kinases)","Monoamine transporter subfamily","p38 subfamily"}

> <pathway_reactome>
{Metabolism,"Transport of small molecules","Cellular responses to external stimuli","Cell Cycle",Disease,"Immune System","Gene expression (Transcription)","Developmental Biology",Hemostasis,"Signal Tr
ansduction","Neuronal System","Metabolism of lipids","O2/CO2 exchange in erythrocytes","Cellular responses to stress","Reversible hydration of carbon dioxide",Mitotic,"Infectious disease","Cytokine Si
gnaling in Immune system","RNA Polymerase II Transcription","Biological oxidations","Nervous system development","Platelet homeostasis","Innate Immune System","Signaling by GPCR","Disorders of Develop
mental Biology","Transmission across Chemical Synapses","Disorders of transmembrane transporters","Biosynthesis of specialized proresolving mediators (SPMs)","Erythrocytes take up carbon dioxide and r
elease oxygen","Cellular response to hypoxia","Fatty acid metabolism","M Phase","Leishmania infection","Signaling by Interleukins","Generic Transcription Pathway","Phase I - Functionalization of compo
unds","Axon guidance","Nitric oxide stimulates guanylate cyclase","Toll-like Receptor Cascades","Infection with Mycobacterium tuberculosis","GPCR ligand binding","Disorders of Nervous System Developme
nt","Neurotransmitter clearance","SLC transporter disorders","Biosynthesis of DPA-derived SPMs","Regulation of gene expression by Hypoxia-inducible Factor","Arachidonic acid metabolism","Mitotic Metap
hase and Anaphase","Leishmania parasite growth and survival","Interleukin-12 family signaling","Transcriptional Regulation by TP53","Cytochrome P450 - arranged by substrate type","Parasite infection",
"Semaphorin interactions","cGMP effects","Mitotic Prophase","Toll Like Receptor 5 (TLR5) Cascade","Response of Mtb to phagocytosis","Biosynthesis of DHA-derived SPMs","Class A/1 (Rhodopsin-like recept
ors)","NCAM signaling for neurite out-growth","Pervasive developmental disorders","Serotonin clearance from the synaptic cleft","Transcriptional regulation by RUNX2","Defective SLC6A2 causes orthostat
ic intolerance (OI)","Defective SLC6A3 causes Parkinsonism-dystonia infantile (PKDYS)","Biosynthesis of DPAn-3 SPMs","Synthesis of Prostaglandins (PG) and Thromboxanes (TX)","Mitotic Anaphase","Anti-i
nflammatory response favouring Leishmania parasite infection","Interleukin-12 signaling","TP53 Regulates Metabolic Genes",Xenobiotics,"Leishmania phagocytosis","Sema4D in semaphorin signaling","Regula
tion of TP53 Activity","Golgi Cisternae Pericentriolar Stack Reorganization","MyD88 cascade initiated on plasma membrane","Suppression of phagosomal maturation","Biosynthesis of maresins","Amine ligan
d-binding receptors","NCAM1 interactions","Loss of function of MECP2 in Rett syndrome","RUNX2 regulates bone development","Nucleotide-like (purinergic) receptors","Nuclear Envelope (NE) Reassembly","A
DORA2B mediated anti-inflammatory cytokines production","Gene and protein expression by JAK-STAT signaling after Interleukin-12 stimulation","CYP2E1 reactions","FCGR3A-mediated phagocytosis","Sema4D m
ediated inhibition of cell attachment and migration","Regulation of TP53 Expression and Degradation","Biosynthesis of DPAn-3-derived 13-series resolvins","MAP kinase activation","Prevention of phagoso
mal-lysosomal fusion","Biosynthesis of maresin-like SPMs",Adrenoceptors,"Loss of MECP2 binding ability to 5mC-DNA","RUNX2 regulates osteoblast differentiation","Adenosine P1 receptors","Initiation of 
Nuclear Envelope (NE) Reformation","Regulation of TP53 Degradation","MAPK targets/ Nuclear events mediated by MAP kinases","Activation of the AP-1 family of transcription factors"}

> <broad_targets>
{CA12,PDPK1,PTGS2}

> <broad_moa>
{"cyclooxygenase inhibitor"}

> <synonyms>
{"Celebrex (TN)",SMR000550473,CAS-169590-42-5,CAS169590425,SR-01000837528,SR01000837528,Celecoxibum,"Celecoxib (USAN:INN:BAN)","CCRIS 9330",TPI-336,TPI336,Celecoxib-(d4),Celecoxib(d4),"Onsenal (TN)",A
I-525,AI525,CEP-33222,CEP33222,CELEBCOXIB,544686-20-6,544686206,Spectrum_000432,Spectrum000432,Spectrum-000432,"Spectrum 000432",1oq5,Spectrum2_001576,Spectrum2001576,Spectrum2-001576,"Spectrum2 00157
6",Spec,T0466,719627,SAM002589995,1503678,Prestw-1371,"NSC 719627",Celecoxib,CPD000550473,CELECOXIB}

> <pdid>
PD000893

> <targets>
{}

> <classes>
{"COX-2 inhibitor","cyclooxygenase2 inhibitor",antiarthritic}

> <pubchem_cids>
{2662}

$$$$
NCI_AOD5_2014
  SciTegic11012412592D

 37 41  0  0  0  0            999 V2000
    2.5981   -1.5000    0.0000 C   0  0
    1.2990   -0.7500    0.0000 N   0  0
    1.2990    0.7500    0.0000 C   0  0
    0.0000    1.5000    0.0000 C   0  0
   -1.2990    0.7500    0.0000 N   0  0
   -1.2990   -0.7500    0.0000 C   0  0
    0.0000   -1.5000    0.0000 C   0  0
   -2.6003    1.4977    0.0000 C   0  0
   -3.8990    0.7455    0.0000 C   0  0
   -5.2007    1.4909    0.0000 C   0  0
   -6.4972    0.7364    0.0000 C   0  0
   -6.4920   -0.7636    0.0000 C   0  0
   -5.1903   -1.5091    0.0000 C   0  0
   -3.8939   -0.7546    0.0000 C   0  0
   -7.7876   -1.5212    0.0000 C   0  0
   -9.0905   -0.7779    0.0000 O   0  0
   -7.7802   -3.0220    0.0000 N   0  0
   -9.0758   -3.7796    0.0000 C   0  0
   -9.0707   -5.2796    0.0000 C   0  0
  -10.3671   -6.0341    0.0000 C   0  0
  -11.6687   -5.2886    0.0000 C   0  0
  -12.9652   -6.0432    0.0000 C   0  0
  -11.6740   -3.7886    0.0000 C   0  0
  -12.9748   -3.0401    0.0000 N   0  0
  -12.9779   -1.5393    0.0000 C   0  0
  -14.2769   -0.7892    0.0000 N   0  0
  -14.2770    0.7108    0.0000 C   0  0
  -12.9780    1.4608    0.0000 C   0  0
  -11.6789    0.7109    0.0000 C   0  0
  -11.6789   -0.7891    0.0000 N   0  0
  -10.3792    1.4613    0.0000 C   0  0
  -10.3768    2.9613    0.0000 C   0  0
   -9.0766    3.7093    0.0000 C   0  0
   -7.7787    2.9573    0.0000 C   0  0
   -7.7811    1.4573    0.0000 N   0  0
   -9.0813    0.7093    0.0000 C   0  0
  -10.3776   -3.0341    0.0000 C   0  0
  1  2  1  0
  2  3  1  0
  3  4  1  0
  4  5  1  0
  5  6  1  0
  6  7  1  0
  7  2  1  0
  5  8  1  0
  8  9  1  0
  9 10  2  0
 10 11  1  0
 11 12  2  0
 12 13  1  0
 13 14  2  0
 14  9  1  0
 12 15  1  0
 15 16  2  0
 15 17  1  0
 17 18  1  0
 18 19  2  0
 19 20  1  0
 20 21  2  0
 21 22  1  0
 21 23  1  0
 23 24  1  0
 24 25  1  0
 25 26  2  0
 26 27  1  0
 27 28  2  0
 28 29  1  0
 29 30  2  0
 30 25  1  0
 29 31  1  0
 31 32  2  0
 32 33  1  0
 33 34  2  0
 34 35  1  0
 35 36  2  0
 36 31  1  0
 23 37  2  0
 37 18  1  0
M  END
> <name>
NCI_AOD5_2014

> <id>
2644

> <plate>
NCI_V5_B

> <well>
B03

> <supplier_cmpd_name>
Imatinib

> <ctcr_id>
1820

> <supplier_cmpd_id>
743414

> <smiles>
CN1CCN(CC1)Cc2ccc(cc2)C(=O)Nc3ccc(C)c(Nc4nccc(n4)c5cccnc5)c3

> <pd_targets>
{S,MAPK10,FYN,CLK1,CLK4,MAPK8,PDGFRA,DDR1,BRAF,ABL1,BCR,PDGFRB,FGR,GAK,LCK,MELK,KIT,SYK,CA7,NQO2,CDK19,KARS1,KDR,LMNA,FRK,TYK2,CA12,CA2,PLK2,PLK4,CA13,CA15,IRAK1,EPHA8,CYP3A4,ABL2,MAPK9,SRC,ABCB11,STK
17A,RAF1,DDR2,TNNI3K,MAP3K20,LYN,CSF1R,EGFR,MAPK14,CA9,CA4,CA5B,PIP4K2C,BLK,CA3,CA14,ALB,ABCB1,CA6,CA1,FLT3,CA5A,HIPK4,MAPK11,MAPK12,MAPK13,REP,RORC,TAOK1,RAD52,HRH2,SLC47A2,SLC22A3,ABCG2,SLC6A4,TBXAS
1,SLC47A1,SLC22A2,HTR2A,RET,NTRK1}

> <pathway_gtopdb>
{Enzyme,"Other nuclear protein",Transporter,"Secreted protein","Transcription factor","Membrane receptor",Kinase,Protease,Lyase,Oxidoreductase,"Cytochrome P450","Primary active transporter",Transferas
e,"Nuclear receptor","Family A G protein-coupled receptor","Electrochemical transporter","Protein Kinase","Cysteine protease","Cytochrome P450 family 3","ATP-binding cassette","Nuclear hormone recepto
r subfamily 1","Small molecule receptor (family A GPCR)","SLC superfamily of solute carriers","Cytochrome P450 family 5","CMGC protein kinase group","TK protein kinase group","TKL protein kinase group
","Atypical protein kinase group","Cysteine protease CA clan","Other protein kinase group","CAMK protein kinase group","Cytochrome P450 family 3A","ABCB subfamily","Nuclear hormone receptor subfamily 
1 group F","STE protein kinase group","Monoamine receptor","SLC47 family of multidrug and toxin extrusion transporters","SLC22 family of organic cation and anion transporters","ABCG subfamily","SLC06 
neurotransmitter transporter family","Cytochrome P450 family 5A","CMGC protein kinase MAPK family","Tyrosine protein kinase Src family","CMGC protein kinase CLK family","Tyrosine protein kinase PDGFR 
family","Tyrosine protein kinase DDR family","TKL protein kinase RAF family","Atypical protein kinase BCR family","Cysteine protease C1A family","Tyrosine protein kinase Abl family","Other protein kin
ase NAK family","CAMK protein kinase CAMK1 family","Tyrosine protein kinase Syk family","CMGC protein kinase CDK family","Tyrosine protein kinase VEGFR family","Tyrosine protein kinase JakA family","O
ther protein kinase PLK family","TKL protein kinase IRAK family","Tyrosine protein kinase Eph family","Cytochrome P450 3A4","CAMK protein kinase DAPK family","TKL protein kinase MLK family","Tyrosine 
protein kinase EGFR family","CMGC protein kinase DYRK family","Nuclear hormone receptor subfamily 1 group F member 3","STE protein kinase STE20 family","Histamine receptor","Cytochrome P450 5A1","Sero
tonin receptor","Tyrosine protein kinase Trk family","CMGC protein kinase JNK subfamily","Tyrosine protein kinase SrcA","CAMK protein kinase MELK subfamily","CMGC protein kinase CDK8 subfamily","Other
 protein kinase PLK2","TKL protein kinase HH498 subfamily","TKL protein kinase MLK subfamily","CMGC protein kinase p38 subfamily","CMGC protein kinase HIPK subfamily","STE protein kinase TAO subfamily
"}

> <pathway_chembl>
{"Other protein targets",Enzymes,Receptors,Transporters,"Anti-infective targets","Kinases (EC 2.7.x.x)","Catalytic receptors","Carbonic anhydrases","Cytochrome P450","ATP-binding cassette transporter 
family","Nuclear hormone receptors","G protein-coupled receptors","SLC superfamily of solute carriers","Viral protein targets","CMGC: Containing CDK",MAPK,GSK3,"CLK families","Receptor kinases","CAMK:
 Calcium/calmodulin-dependent protein kinases","CYP3 family","ABCB subfamily","Lipid modifying kinases","1F. Retinoic acid-related orphans","STE: Homologs of yeast Sterile 7","Sterile 11","Sterile 20 
kinases","Histamine receptors","SLC47 family of multidrug and toxin extrusion transporters","SLC22 family of organic cation and anion transporters","ABCG subfamily","SLC6 neurotransmitter transporter 
family",CYP5,"CYP7 and CYP8 families","5-Hydroxytryptamine receptors",Atypical,"Coronavirus (CoV) proteins","Mitogen-activated protein kinases (MAP kinases)","TK: Tyrosine kinase","CLK family","TKL: T
yrosine kinase-like","Other protein kinases","CAMK-like (CAMKL) family","Cyclin-dependent kinase (CDK) family","Death-associated kinase (DAPK) family","Type II PIP kinases (1-phosphatidylinositol-5-ph
osphate 4-kinase family)","Dual-specificity tyrosine-(Y)-phosphorylation regulated kinase (DYRK) family","STE20 family","Organic cation transporters (OCT)","Monoamine transporter subfamily","BCR famil
y","JNK subfamily","Non-receptor tyrosine kinases (nRTKs)","Receptor tyrosine kinases (RTKs)","RAF family","Numb-associated kinase (NAK) family","MELK subfamily","CDK8 subfamily","Polo-like kinase (PL
K) family","Interleukin-1 receptor-associated kinase (IRAK) family","Mixed Lineage Kinase (MLK) family","p38 subfamily","HIPK subfamily","TAO subfamily","Src family","Type III RTKs: PDGFR",CSFR,Kit,"F
LT3 receptor family","Type XVI RTKs: DDR (collagen receptor) family","Abl family","Syk family","Type IV RTKs: VEGF (vascular endothelial growth factor) receptor family","Janus kinase (JakA) family","T
ype XIII RTKs: Ephrin receptor family","HH498 subfamily","MLK subfamily","Type I RTKs: ErbB (epidermal growth factor) receptor family","Type VII RTKs: Neurotrophin receptor/Trk family"}

> <pathway_reactome>
{Disease,"Immune System","Extracellular matrix organization","Signal Transduction","Vesicle-mediated transport",Metabolism,"Metabolism of proteins","Cell Cycle","Transport of small molecules","Develop
mental Biology","Gene expression (Transcription)","Cellular responses to external stimuli","DNA Repair","Neuronal System","Infectious disease","Innate Immune System","Diseases of signal transduction b
y growth factor receptors and second messengers","Non-integrin membrane-ECM interactions","Signaling by Receptor Tyrosine Kinases","Membrane Trafficking","Intracellular signaling by second messengers"
,"Reversible hydration of carbon dioxide","Biological oxidations","Metabolism of lipids",Translation,Mitotic,"Cytokine Signaling in Immune system","O2/CO2 exchange in erythrocytes","Nervous system dev
elopment","MAPK family signaling cascades","RNA Polymerase II Transcription","Signaling by GPCR","Cellular responses to stress","Abacavir transport and metabolism","DNA Double-Strand Break Repair","SL
C-mediated transmembrane transport","Transmission across Chemical Synapses","SARS-CoV Infections","Toll-like Receptor Cascades","HIV Infection","Signaling by PDGFR in disease","Signaling by NTRKs","Le
ishmania infection","trans-Golgi Network Vesicle Budding","Signaling by KIT in disease","PIP3 activates AKT signaling","Phase I - Functionalization of compounds","Regulation of lipid metabolism by PPA
Ralpha","tRNA Aminoacylation","Signaling by VEGF","M Phase","Interferon Signaling","Erythrocytes take up carbon dioxide and release oxygen","Mitotic G2-G2/M phases","Axon guidance","Biosynthesis of sp
ecialized proresolving mediators (SPMs)","Metabolism of steroids","MAPK1/MAPK3 signaling","Generic Transcription Pathway","GPCR downstream signalling","Cellular response to hypoxia","Abacavir transmem
brane transport","Signaling by Interleukins","Signaling by Insulin receptor","Homology Directed Repair","Transport of bile salts and organic acids","metal ions and amine compounds","Neurotransmitter c
learance","GPCR ligand binding","Signaling by FGFR in disease","SARS-CoV-1 Infection","Toll Like Receptor 5 (TLR5) Cascade","Host Interactions of HIV factors","Drug resistance of PDGFR mutants","Signa
ling by NTRK1 (TRKA)","Parasite infection","Leishmania parasite growth and survival","Golgi Associated Vesicle Biogenesis","Drug resistance of KIT mutants","Negative regulation of the PI3K/AKT network
","PPARA activates gene expression","Cytosolic tRNA aminoacylation","VEGFA-VEGFR2 Pathway","Mitotic Metaphase and Anaphase","PTEN Regulation","Interferon alpha/beta signaling","G2/M Transition","EPH-E
phrin signaling","Biosynthesis of DHA-derived SPMs","Signaling by ROBO receptors","Bile acid and bile salt metabolism","RAF/MAP kinase cascade","Transcriptional Regulation by VENTX","G alpha (q) signa
lling events","Regulation of gene expression by Hypoxia-inducible Factor","Transcriptional Regulation by TP53","Transcriptional regulation by RUNX1","Interleukin-12 family signaling","Insulin receptor
 signalling cascade","Transcriptional regulation by RUNX3","HDR through Homologous Recombination (HRR) or Single Strand Annealing (SSA)","Organic cation/anion/zwitterion transport","Serotonin clearanc
e from the synaptic cleft","Cytochrome P450 - arranged by substrate type","Class A/1 (Rhodopsin-like receptors)","Signaling by FGFR1 in disease","Translation of structural proteins","MyD88 cascade ini
tiated on plasma membrane","The role of Nef in HIV-1 replication and disease pathogenesis","Imatinib-resistant PDGFR mutants","Signalling to ERKs","Leishmania phagocytosis","Anti-inflammatory response
 favouring Leishmania parasite infection","Dasatinib-resistant KIT mutants",PI5P,"PP2A and IER3 Regulate PI3K/AKT Signaling","VEGFR2 mediated cell proliferation","Mitotic Anaphase","Regulation of PTEN
 stability and activity","Regulation of IFNA signaling","Centrosome maturation","EPHA-mediated growth cone collapse","Biosynthesis of maresins","Role of ABL in ROBO-SLIT signaling","Synthesis of bile 
acids and bile salts","Negative regulation of MAPK pathway","Gastrin-CREB signalling pathway via PKC and MAPK","Regulation of TP53 Activity","RUNX1 regulates transcription of genes involved in BCR sig
naling","Recycling of bile acids and salts","Interleukin-12 signaling","IRS-mediated signalling","SARS-CoV-1 Genome Replication and Transcription","RUNX3 Regulates Immune Response and Cell Migration",
"HDR through Single Strand Annealing (SSA)","Organic cation transport",Eicosanoids,"Amine ligand-binding receptors","FGFR1 mutant receptor activation","Maturation of spike protein","MAP kinase activat
ion","Nef and signal transduction","Prolonged ERK activation events","FCGR3A-mediated phagocytosis","FCGR3A-mediated IL10 synthesis","Nef-mediates down modulation of cell surface receptors by recruiti
ng them to clathrin adapters","Nuclear Envelope (NE) Reassembly","CD163 mediating an anti-inflammatory response","Loss of proteins required for interphase microtubule organization from the centrosome"
,"Biosynthesis of maresin-like SPMs","Signalling to RAS","Synthesis of bile acids and bile salts via 7alpha-hydroxycholesterol","Negative feedback regulation of MAPK pathway","EGFR Transactivation by 
Gastrin","Regulation of TP53 Activity through Acetylation","Gene and protein expression by JAK-STAT signaling after Interleukin-12 stimulation","PI3K Cascade","Replication of the SARS-CoV-1 genome","S
eparation of Sister Chromatids","ADORA2B mediated anti-inflammatory cytokines production","Serotonin receptors","Signaling by cytosolic FGFR1 fusion mutants","MAPK targets/ Nuclear events mediated by 
MAP kinases","ARMS-mediated activation","Nef Mediated CD4 Down-regulation","Initiation of Nuclear Envelope (NE) Reformation","Loss of Nlp from mitotic centrosomes","activated TAK1 mediates p38 MAPK ac
tivation","p38MAPK events","PI5P Regulates TP53 Acetylation","Activation of the AP-1 family of transcription factors"}

> <broad_targets>
{ABL1,CSF1R,DDR1,KIT,NTRK1,PDGFRA,PDGFRB,RET}

> <broad_moa>
{"Bcr-Abl kinase inhibitor","KIT inhibitor","PDGFR tyrosine kinase receptor inhibitor"}

> <synonyms>
{Imatinib,152459-95-5,152459955,STI571,Glivec,"Imatinib (STI571)",sti-571,sti571,"Imatinib free base","Cgp 57148","STI 571",UNII-BKJ8M8G5HI,UNIIBKJ8M8G5HI,"Imatinib Methansulfonate",CGP-57148,CGP57148
,"152459-95-5 (free base)","152459955 (free base)",BKJ8M8G5HI,CHEMBL941,CHEBI:45783,NSC743414,"Imatinib (INN:BAN",T6230,743414,S2475,Prestw-1290,"NSC 743414",imatinib,Imatinib(STI571),IMATINIB,"Imatin
ib mesylate"}

> <pdid>
PD001319

> <targets>
{c-Kit,KIT,ABL,VEGFR-PDGFR,PDGFR}

> <classes>
{"Tyrosine kinase inhibitor"}

> <pubchem_cids>
{5291}

$$$$
NCI_AOD5_2014
  SciTegic11012412592D

 32 34  0  0  0  0            999 V2000
    5.0536    0.7860    0.0000 Cl  0  0
    7.6994    4.5206    0.0000 C   0  0
    6.1994    4.5163    0.0000 N   0  0
    5.3212    3.3003    0.0000 N   0  0
    3.8941    3.7597    0.0000 C   0  0
    2.5972    3.0060    0.0000 C   0  0
    1.2961    3.7523    0.0000 C   0  0
    1.2918    5.2523    0.0000 C   0  0
    2.5887    6.0060    0.0000 C   0  0
    3.8898    5.2597    0.0000 C   0  0
    5.3143    5.7273    0.0000 C   0  0
    5.7736    7.1552    0.0000 C   0  0
   -0.0031    3.0008    0.0000 N   0  0
   -0.0014    1.5008    0.0000 C   0  0
   -1.3039    3.7494    0.0000 C   0  0
   -1.3092    5.2494    0.0000 C   0  0
   -2.6108    5.9949    0.0000 C   0  0
   -3.9073    5.2404    0.0000 N   0  0
   -3.9021    3.7404    0.0000 C   0  0
   -5.1977    2.9828    0.0000 N   0  0
   -5.1903    1.4820    0.0000 C   0  0
   -6.4841    0.7230    0.0000 C   0  0
   -6.4738   -0.7770    0.0000 C   0  0
   -5.1696   -1.5180    0.0000 C   0  0
   -5.1592   -3.0180    0.0000 C   0  0
   -3.8757   -0.7590    0.0000 C   0  0
   -3.8861    0.7409    0.0000 C   0  0
   -2.5708   -1.5004    0.0000 S   0  0
   -1.2773   -0.7410    0.0000 N   0  0
   -2.5595   -3.0004    0.0000 O   0  0
   -1.2663   -2.2408    0.0000 O   0  0
   -2.6005    2.9949    0.0000 N   0  0
  2  3  1  0
  3  4  1  0
  4  5  2  0
  5  6  1  0
  6  7  2  0
  7  8  1  0
  8  9  2  0
  9 10  1  0
 10  5  1  0
 10 11  2  0
 11  3  1  0
 11 12  1  0
  7 13  1  0
 13 14  1  0
 13 15  1  0
 15 16  2  0
 16 17  1  0
 17 18  2  0
 18 19  1  0
 19 20  1  0
 20 21  1  0
 21 22  2  0
 22 23  1  0
 23 24  2  0
 24 25  1  0
 24 26  1  0
 26 27  2  0
 27 21  1  0
 26 28  1  0
 28 29  1  0
 28 30  2  0
 28 31  2  0
 19 32  2  0
 32 15  1  0
M  END
> <name>
NCI_AOD5_2014

> <id>
2645

> <plate>
NCI_V5_B

> <well>
B04

> <supplier_cmpd_name>
Pazopanib hydrochloride

> <ctcr_id>
5557

> <supplier_cmpd_id>
737754

> <smiles>
Cl.Cn1nc2cc(ccc2c1C)N(C)c3ccnc(Nc4ccc(C)c(c4)[S](N)(=O)=O)n3

> <pd_targets>
{RET,ABL1,ABL2,JAK3,MAPK10,DDR2,LCK,EIF2AK2,PTK6,RAF1,MAP4K2,FGR,FYN,MYLK2,ROS1,STK36,PLK4,MAP2K4,EPHB6,FGFR3,MAP3K11,TXK,LIMK1,MAP3K10,CAMK1G,LIMK2,STK10,KIT,FLT4,FGFR1,FLT1,CDK16,PDGFRB,FRK,TNIK,MAP
K8,NEK2,DDR1,TGFBR2,KDR,MAP4K1,MAP4K3,BMP2K,MAP2K6,CDK11A,MAP3K9,LYN,FLT3,PI4KB,RIPK1,BLK,AURKC,SIK1,TIE1,ACHE,IGF1R,JAK2,GAK,RIOK2,ALK,FER,FGFR2,RIPK2,BRAF,CAMK1,NLK,TTK,PDGFRA,AAK1,ACVR2B,FGFR4,YES1
,MAP3K2,SYK,PTK2,EGFR,CSF1R,CDPK1,MERTK,STK16,MAP4K4,MAP4K5,CDK11B,PIP5K1C,PIP4K2C,MAP3K19,IRAK3,MET,BMPR1B,CDK7,TNK1,TAOK3,TAOK2,MAPK9,FES,HCK,TAOK1,LTK,IRAK1,TYK2,AURKA,TEK,MARK3,AURKB,MAP3K1,MAP2K5
,SRC,SRMS,SIK2,SLK,TNK2,NEK5,ABCB11,ABCC4,ITK,FGF1,SH2B3}

> <pathway_gtopdb>
{Enzyme,"Unclassified protein",Transporter,"Secreted protein",Kinase,Transferase,Hydrolase,"Primary active transporter","Protein Kinase","ATP-binding cassette","TK protein kinase group","CMGC protein 
kinase group","Other protein kinase group","TKL protein kinase group","STE protein kinase group","CAMK protein kinase group","Atypical protein kinase group","ABCB subfamily","ABCC subfamily","Tyrosine
 protein kinase Ret family","Tyrosine protein kinase Abl family","Tyrosine protein kinase JakA family","CMGC protein kinase MAPK family","Tyrosine protein kinase DDR family","Tyrosine protein kinase S
rc family","Other protein kinase PEK family","TKL protein kinase RAF family","STE protein kinase STE20 family","CAMK protein kinase MLCK family","Tyrosine protein kinase Sev family","Other protein kin
ase ULK family","Other protein kinase PLK family","STE protein kinase STE7 family","Tyrosine protein kinase FGFR family","TKL protein kinase MLK family","Tyrosine protein kinase Tec family","TKL prote
in kinase LISK family","CAMK protein kinase CAMK1 family","Tyrosine protein kinase PDGFR family","Tyrosine protein kinase VEGFR family","CMGC protein kinase CDK family","Other protein kinase NEK famil
y","TKL protein kinase STKR family","Other protein kinase NAK family","TKL protein kinase RIPK family","Other protein kinase AUR family","Tyrosine protein kinase Tie family","Tyrosine protein kinase I
nsR family","Atypical protein kinase RIO family","Tyrosine protein kinase Fer family","Other protein kinase TTK family","STE protein kinase STE11 family","Tyrosine protein kinase Syk family","Tyrosine
 protein kinase Fak family","Tyrosine protein kinase Axl family","TKL protein kinase IRAK family","Tyrosine protein kinase Met family","Tyrosine protein kinase Ack family","Tyrosine protein kinase Alk
 family","CMGC protein kinase JNK subfamily","Other protein kinase PKR","STE protein kinase KHS subfamily","Tyrosine protein kinase SrcA","TKL protein kinase MLK subfamily","TKL protein kinase LIMK su
bfamily","STE protein kinase SLK subfamily","CMGC protein kinase TAIRE subfamily","STE protein kinase MSN subfamily","TKL protein kinase STKR Type 2 subfamily","CMGC protein kinase PITSLRE subfamily",
"CAMK protein kinase QIK subfamily","Atypical protein kinase RIO2 subfamily","TKL protein kinase STKR Type 1 subfamily","CMGC protein kinase nmo subfamily","STE protein kinase MEKK2","CMGC protein kin
ase CDK7 subfamily","STE protein kinase TAO subfamily","CAMK protein kinase MARK subfamily","Tyrosine protein kinase Srm"}

> <pathway_chembl>
{Receptors,Enzymes,Transporters,"Catalytic receptors","Kinases (EC 2.7.x.x)","Acetylcholine turnover","ATP-binding cassette transporter family","Receptor kinases","CMGC: Containing CDK",MAPK,GSK3,"CLK
 families","STE: Homologs of yeast Sterile 7","Sterile 11","Sterile 20 kinases","CAMK: Calcium/calmodulin-dependent protein kinases","Lipid modifying kinases",Atypical,"ABCB subfamily","ABCC subfamily
","TK: Tyrosine kinase","Mitogen-activated protein kinases (MAP kinases)","Other protein kinases","TKL: Tyrosine kinase-like","STE20 family","Myosin Light Chain Kinase (MLCK) family","STE7 family","CA
MK1 family","Cyclin-dependent kinase (CDK) family","1-phosphatidylinositol 4-kinase family","CAMK-like (CAMKL) family","RIO family","STE11 family","Type I PIP kinases (1-phosphatidylinositol-4-phospha
te 5-kinase family)","Type II PIP kinases (1-phosphatidylinositol-5-phosphate 4-kinase family)","Receptor tyrosine kinases (RTKs)","Non-receptor tyrosine kinases (nRTKs)","JNK subfamily","PEK family",
"RAF family","KHS subfamily","Unc-51-like kinase (ULK) family","Polo-like kinase (PLK) family","Mixed Lineage Kinase (MLK) family","LIM domain kinase (LISK) family","SLK subfamily","TAIRE subfamily","
MSN subfamily","NIMA (never in mitosis gene a)- related kinase (NEK) family","Receptor serine/threonine kinase (RSTK) family","Numb-associated kinase (NAK) family","PITSLRE subfamily","Receptor intera
cting protein kinase (RIPK) family","Aurora kinase (Aur) family","QIK subfamily","RIO2 subfamily","nmo subfamily","TTK family","NAK family","STE20 subfamily","Interleukin-1 receptor-associated kinase 
(IRAK) family","CDK7 subfamily","TAO subfamily","MARK subfamily","Type XIV RTKs: RET","Abl family","Janus kinase (JakA) family","Type XVI RTKs: DDR (collagen receptor) family","Src family","Other PEK 
family kinases","Type XVII RTKs: ROS receptors","Type XIII RTKs: Ephrin receptor family","Type V RTKs: FGF (fibroblast growth factor) receptor family","MLK subfamily","Tec family","LIMK subfamily","Ty
pe III RTKs: PDGFR",CSFR,Kit,"FLT3 receptor family","Type IV RTKs: VEGF (vascular endothelial growth factor) receptor family","Type II receptor serine/threonine kinases","Type XII RTKs: TIE family of 
angiopoietin receptors","Type II RTKs: Insulin receptor family","Type XIX RTKs: Leukocyte tyrosine kinase (LTK) receptor family","Fer family","Syk family","Fak family","Type XI RTKs: TAM (TYRO3-","AXL
- and MER-TK) receptor family","Type X RTKs: HGF (hepatocyte growth factor) receptor family","Type I receptor serine/threonine kinases","Ack family"}

> <pathway_reactome>
{"Developmental Biology",Disease,"Immune System","Extracellular matrix organization","Cell Cycle","Signal Transduction","Cellular responses to external stimuli","Gene expression (Transcription)",Metab
olism,"Circadian Clock","Vesicle-mediated transport","Metabolism of RNA","Neuronal System",Hemostasis,"Nervous system development","Infectious disease","Cytokine Signaling in Immune system","Innate Im
mune System","Non-integrin membrane-ECM interactions",Mitotic,"MAPK family signaling cascades","Diseases of signal transduction by growth factor receptors and second messengers","Signaling by Receptor
 Tyrosine Kinases","Intracellular signaling by second messengers","Cellular responses to stress","RNA Polymerase II Transcription","Metabolism of lipids","Membrane Trafficking","rRNA processing","Tran
smission across Chemical Synapses","Signaling by WNT","Signaling by NODAL","Cell surface interactions at the vascular wall","Signaling by TGFB family members","Signaling by Non-Receptor Tyrosine Kinas
es","Platelet activation","signaling and aggregation","Adaptive Immune System","Axon guidance","Leishmania infection","Signaling by Interleukins","Toll-like Receptor Cascades","HIV Infection","Influen
za Infection","Mitotic G1 phase and G1/S transition","MAPK1/MAPK3 signaling","Mitotic G2-G2/M phases","Signaling by FGFR in disease","Oncogenic MAPK signaling","Fc epsilon receptor (FCERI) signaling",
"Neutrophil degranulation","Signaling by KIT in disease","Signaling by VEGF","PIP3 activates AKT signaling","Cellular Senescence","Regulation of mitotic cell cycle","Signaling by TGF-beta Receptor Com
plex in Cancer","Generic Transcription Pathway","Signaling by Insulin receptor","Phospholipid metabolism","Signaling by Type 1 Insulin-like Growth Factor 1 Receptor (IGF1R)","trans-Golgi Network Vesic
le Budding","rRNA processing in the nucleus and cytosol","Signaling by SCF-KIT","Signaling by NTRKs","Neurotransmitter receptors and postsynaptic signal transmission","Beta-catenin independent WNT sig
naling","Signaling by PDGFR in disease","Clathrin-mediated endocytosis","Regulation of signaling by NODAL","Signaling by FGFR","Signaling by BMP","M Phase","Interferon Signaling","Signaling by PTK6","
Metabolism of steroids","Response to elevated platelet cytosolic Ca2+","TCR signaling","FLT3 Signaling","RET signaling","Parasite infection","Signaling by ROBO receptors","Interleukin-2 family signali
ng","Toll Like Receptor 5 (TLR5) Cascade","Host Interactions of HIV factors","NS1 Mediated Effects on Host Pathways","G1 Phase","RAF/MAP kinase cascade","Leishmania parasite growth and survival","G2/M
 Transition","EPH-Ephrin signaling","Signaling by FGFR3 in disease","Signaling by RAS mutants","FCERI mediated Ca+2 mobilization","Semaphorin interactions","Drug resistance of KIT mutants","VEGF ligan
d-receptor interactions","Signaling by FGFR1 in disease","Negative regulation of the PI3K/AKT network","PTEN Regulation","Oxidative Stress Induced Senescence","APC/C-mediated degradation of cell cycle
 proteins","Loss of Function of SMAD2/3 in Cancer","VEGFA-VEGFR2 Pathway","Transcriptional Regulation by TP53","Insulin receptor signalling cascade","PI Metabolism","Toll Like Receptor 4 (TLR4) Cascad
e","Transcriptional regulation by RUNX1","Glycerophospholipid biosynthesis","IGF1R signaling cascade","Golgi Associated Vesicle Biogenesis","Major pathway of rRNA processing in the nucleolus and cytos
ol","Signaling by FGFR2 in disease","Signaling by NTRK1 (TRKA)","Activation of NMDA receptors and postsynaptic events","Ca2+ pathway","Drug resistance of PDGFR mutants","Cargo recognition for clathrin
-mediated endocytosis","Signaling by FGFR4","Transcriptional Regulation by VENTX","Toll Like Receptor 2 (TLR2) Cascade","HIV Life Cycle","Mitotic Metaphase and Anaphase","Interferon alpha/beta signali
ng","PTK6 Down-Regulation","Bile acid and bile salt metabolism","Platelet degranulation","Generation of second messenger molecules","Negative regulation of FLT3","Leishmania phagocytosis","Role of ABL
 in ROBO-SLIT signaling","Interleukin-15 signaling","MyD88 cascade initiated on plasma membrane","The role of Nef in HIV-1 replication and disease pathogenesis","Inhibition of PKR","Cyclin D associate
d events in G1","Negative regulation of MAPK pathway","Anti-inflammatory response favouring Leishmania parasite infection","Centrosome maturation","EPHB-mediated forward signaling","Signaling by FGFR3
 point mutants in cancer","Signaling downstream of RAS mutants","Sema4D in semaphorin signaling","Dasatinib-resistant KIT mutants","VEGF binds to VEGFR leading to receptor dimerization","FGFR1 mutant 
receptor activation",PI5P,"PP2A and IER3 Regulate PI3K/AKT Signaling","Regulation of PTEN stability and activity","Activation of APC/C and APC/C:Cdc20 mediated degradation of mitotic proteins","SMAD2/
3 Phosphorylation Motif Mutants in Cancer","VEGFR2 mediated cell proliferation","Regulation of TP53 Activity","IRS-mediated signalling","Synthesis of PIPs at the Golgi membrane","MyD88-independent TLR
4 cascade","RUNX1 regulates transcription of genes involved in BCR signaling","Synthesis of PC","IRS-related events triggered by IGF1R","FGFR2 mutant receptor activation","Signalling to ERKs","Post NM
DA receptor activation events","Imatinib-resistant PDGFR mutants","Downstream signaling of activated FGFR4","SEMA3A-Plexin repulsion signaling by inhibiting Integrin adhesion","Toll Like Receptor TLR6
:TLR2 Cascade","Late Phase of HIV Life Cycle","CRMPs in Sema3A signaling","Mitotic Anaphase","Regulation of IFNA signaling","Signalling to ERK5","Synthesis of bile acids and bile salts","FCGR3A-mediat
ed phagocytosis","MAP kinase activation","Nef-mediates down modulation of cell surface receptors by recruiting them to clathrin adapters","Negative feedback regulation of MAPK pathway","FCGR3A-mediate
d IL10 synthesis","Nef and signal transduction","Loss of proteins required for interphase microtubule organization from the centrosome","FGFR3 mutant receptor activation","Sema4D induced cell migratio
n and growth-cone collapse","Signaling by activated point mutants of FGFR1","APC/C:Cdc20 mediated degradation of mitotic proteins","Regulation of TP53 Activity through Acetylation","Recruitment of mit
otic centrosome proteins and complexes","PI3K Cascade","TRIF(TICAM1)-mediated TLR4 signaling","Activated point mutants of FGFR2","Prolonged ERK activation events","Activation of RAC1 downstream of NMD
ARs","FRS-mediated FGFR4 signaling","MyD88:MAL(TIRAP) cascade initiated on plasma membrane","Sema4D mediated inhibition of cell attachment and migration","Transcription of the HIV genome","Separation 
of Sister Chromatids","Regulation of TP53 Activity through Phosphorylation","Signalling to RAS","Synthesis of bile acids and bile salts via 7alpha-hydroxycholesterol","MAPK targets/ Nuclear events med
iated by MAP kinases","Nef Mediated CD4 Down-regulation","Loss of Nlp from mitotic centrosomes","JNK (c-Jun kinases) phosphorylation and  activation mediated by activated human TAK1","Signaling by act
ivated point mutants of FGFR3","APC:Cdc20 mediated degradation of cell cycle proteins prior to satisfation of the cell cycle checkpoint","PI5P Regulates TP53 Acetylation","IKK complex recruitment medi
ated by RIP1","activated TAK1 mediates p38 MAPK activation","ARMS-mediated activation","HIV Transcription Elongation","p38MAPK events","Activation of the AP-1 family of transcription factors","APC-Cdc
20 mediated degradation of Nek2A","Tat-mediated elongation of the HIV-1 transcript","Formation of HIV-1 elongation complex containing HIV-1 Tat"}

> <broad_targets>
{CSF1R,FGF1,FGFR1,FGFR3,FLT1,FLT4,ITK,KDR,KIT,PDGFRA,PDGFRB,SH2B3}

> <broad_moa>
{"KIT inhibitor","PDGFR tyrosine kinase receptor inhibitor","VEGFR inhibitor"}

> <synonyms>
{AKOS015918055,"Pazopanib hydrochloride",635702-64-6,635702646,"635702 64 6","pazopanib HCl",Votrient,"Pazopanib (Hydrochloride)",UNII-33Y9ANM545,UNII33Y9ANM545,"UNII 33Y9ANM545","Pazopanib HCl (GW786
034 HCl)",GW786034B,pazopanib,737754,S1035,"NSC 737754","Pazopanib Hydrochloride"}

> <pdid>
PD003339

> <targets>
{VEGFR,VEGFR-PDGFR,Autophagy,c-Kit,FGFR,PDGFR,c-Fms}

> <classes>
{Tyrosine kinase inhibitor,Autophagy,Protein Tyrosine Kinase/RTK}

> <pubchem_cids>
{46864002,11525740}

$$$$
NCI_AOD5_2014
  SciTegic11012412592D

 31 31  0  0  0  0            999 V2000
   12.8003   -0.3695    0.0000 H   0  3
   10.3003   -0.3695    0.0000 Cl  0  5
    7.7996   -1.4883    0.0000 C   0  0
    6.4990   -0.7409    0.0000 O   0  0
    5.2003   -1.4932    0.0000 C   0  0
    3.8990   -0.7455    0.0000 C   0  0
    2.6003   -1.4977    0.0000 O   0  0
    1.2990   -0.7500    0.0000 C   0  0
    1.2990    0.7500    0.0000 C   0  0
    0.0000    1.5000    0.0000 C   0  0
    0.0000    3.0000    0.0000 N   0  0
   -1.2991    3.7500    0.0000 C   0  0
   -2.5981    3.0000    0.0000 N   0  0
   -2.5981    1.5000    0.0000 C   0  0
   -3.8994    0.7522    0.0000 N   0  0
   -5.1981    1.5045    0.0000 C   0  0
   -6.4998    0.7590    0.0000 C   0  0
   -7.7962    1.5135    0.0000 C   0  0
   -7.7910    3.0135    0.0000 C   0  0
   -6.4894    3.7590    0.0000 C   0  0
   -5.1930    3.0045    0.0000 C   0  0
   -6.4842    5.2598    0.0000 C   0  0
   -6.4790    6.7598    0.0000 C   0  0
   -1.2990    0.7500    0.0000 C   0  0
   -1.2990   -0.7500    0.0000 C   0  0
    0.0000   -1.5000    0.0000 C   0  0
   -0.0031   -3.0008    0.0000 O   0  0
   -1.3039   -3.7494    0.0000 C   0  0
   -1.3070   -5.2502    0.0000 C   0  0
   -2.6078   -5.9988    0.0000 O   0  0
   -2.6109   -7.4988    0.0000 C   0  0
  3  4  1  0
  4  5  1  0
  5  6  1  0
  6  7  1  0
  7  8  1  0
  8  9  2  0
  9 10  1  0
 10 11  2  0
 11 12  1  0
 12 13  2  0
 13 14  1  0
 14 15  1  0
 15 16  1  0
 16 17  2  0
 17 18  1  0
 18 19  2  0
 19 20  1  0
 20 21  2  0
 21 16  1  0
 20 22  1  0
 22 23  3  0
 14 24  2  0
 24 10  1  0
 24 25  1  0
 25 26  2  0
 26  8  1  0
 26 27  1  0
 27 28  1  0
 28 29  1  0
 29 30  1  0
 30 31  1  0
M  CHG  2   1   1   2  -1
M  END
> <name>
NCI_AOD5_2014

> <id>
2646

> <plate>
NCI_V5_B

> <well>
B05

> <supplier_cmpd_name>
Erlotinib hydrochloride

> <ctcr_id>
6637

> <supplier_cmpd_id>
718781

> <smiles>
[H+].[Cl-].COCCOc1cc2ncnc(Nc3cccc(c3)C#C)c2cc1OCCOC

> <pd_targets>
{PIP4K2C,ERBB2,BRAF,EGFR,JAK2,FLT3,FLT4,FRK,CSNK1D,TUBA1A,MET,AURKC,FLT1,RPS6KA4,ABL1,ABL2,BLK,STK10,GAK,ALK,DMPK,COQ8A,CDC42BPG,PDGFRB,MAP2K5,EPHA7,KIT,EIF2AK4,RET,ULK3,MAP3K2,LTK,TYRO3,JAK3,SYK,EPHA
3,TIE1,MAPK4,PDGFRA,CIT,FGR,LYN,TNNI3K,LCK,MYLK2,RIPK2,BMP2K,COQ8B,ERBB4,KDR,EPHA6,PKN2,SRC,AAK1,MAP3K3,SBK1,YES1,CSNK1E,CAMK2D,ERBB3,EPHB6,STK17B,CSK,EPHB4,MKNK2,MAPK9,SRPK3,MAP3K19,SLK,AURKA,AURKB,A
XL,HIPK4,GRK4,DDR1,STK17A,LRRK2,CYP3A4,MKNK1,MAPK10,STK36,EPHA8,TNK1,HCK,PLK4,MERTK,TNIK,TXK,TTK,LMNA,MINK1,SLCO2B1,DAPK3,TYK2,TBK1,DYRK2,PTK2,ABCG2,EIF2AK2,SIK2,RIPK4,EPHB1,EPHA5,ABCC2,ABCB1,RAF1,FGF
R2,PRKD2,SLC22A1,SLCO1B3,SLCO1B1,NR1I2}

> <pathway_gtopdb>
{Enzyme,"Structural protein","Unclassified protein","Other nuclear protein",Transporter,"Transcription factor",Transferase,Kinase,"Cytochrome P450","Electrochemical transporter","Primary active transp
orter","Nuclear receptor","Protein Kinase","Cytochrome P450 family 3","SLC superfamily of solute carriers","ATP-binding cassette","Nuclear hormone receptor subfamily 1","TK protein kinase group","TKL 
protein kinase group","CK1 protein kinase group","Other protein kinase group","AGC protein kinase group","STE protein kinase group","Atypical protein kinase group","CMGC protein kinase group","CAMK pr
otein kinase group","Cytochrome P450 family 3A","SLC21/SLCO family of organic anion transporting polypeptides","ABCG subfamily","ABCC subfamily","ABCB subfamily","SLC22 family of organic cation and an
ion transporters","Nuclear hormone receptor subfamily 1 group I","Tyrosine protein kinase EGFR family","TKL protein kinase RAF family","Tyrosine protein kinase JakA family","Tyrosine protein kinase PD
GFR family","Tyrosine protein kinase VEGFR family","Tyrosine protein kinase Src family","CK1 protein kinase CK1 family","Tyrosine protein kinase Met family","Other protein kinase AUR family","AGC prot
ein kinase RSK family","Tyrosine protein kinase Abl family","STE protein kinase STE20 family","Other protein kinase NAK family","TKL protein kinase STKR family","AGC protein kinase DMPK family","STE p
rotein kinase STE7 family","Tyrosine protein kinase Eph family","Other protein kinase PEK family","Tyrosine protein kinase Ret family","Other protein kinase ULK family","STE protein kinase STE11 famil
y","Tyrosine protein kinase Alk family","Tyrosine protein kinase Axl family","Tyrosine protein kinase Syk family","Tyrosine protein kinase Tie family","CMGC protein kinase MAPK family","TKL protein ki
nase MLK family","CAMK protein kinase MLCK family","TKL protein kinase RIPK family","Atypical protein kinase ABC1 family","AGC protein kinase PKN family","Other protein kinase NKF1 family","CAMK prote
in kinase CAMK2 family","CAMK protein kinase DAPK family","Tyrosine protein kinase Csk family","CAMK protein kinase MAPKAPK family","CMGC protein kinase SRPK family","CMGC protein kinase DYRK family",
"AGC protein kinase GRK family","Tyrosine protein kinase DDR family","TKL protein kinase LRRK family","Cytochrome P450 3A4","Tyrosine protein kinase Ack family","Other protein kinase PLK family","Tyro
sine protein kinase Tec family","Other protein kinase TTK family","Other protein kinase IKK family","Tyrosine protein kinase Fak family","CAMK protein kinase CAMK1 family","Tyrosine protein kinase FGF
R family","CAMK protein kinase PKD family","Nuclear hormone receptor subfamily 1 group I member 2","AGC protein kinase MSK subfamily","STE protein kinase SLK subfamily","TKL protein kinase STKR Type 1
 subfamily","AGC protein kinase GEK subfamily","Other protein kinase GCN2 subfamily","STE protein kinase MEKK2","CMGC protein kinase ERK3","AGC protein kinase CRIK subfamily","TKL protein kinase HH498
 subfamily","Atypical protein kinase ABC1-A subfamily","CAMK protein kinase MNK subfamily","CMGC protein kinase JNK subfamily","CMGC protein kinase HIPK subfamily","AGC protein kinase GRK subfamily","
STE protein kinase MSN subfamily","CMGC protein kinase Dyrk2 subfamily","Other protein kinase PKR","CAMK protein kinase QIK subfamily"}

> <pathway_chembl>
{Enzymes,Receptors,"Other protein targets",Transporters,"Kinases (EC 2.7.x.x)","Catalytic receptors",Tubulins,"Cytochrome P450","SLC superfamily of solute carriers","ATP-binding cassette transporter f
amily","Nuclear hormone receptors","Lipid modifying kinases","Receptor kinases","CK1: Casein kinase 1","AGC: Containing PKA",PKG,"PKC families","STE: Homologs of yeast Sterile 7","Sterile 11","Sterile
 20 kinases",Atypical,"CMGC: Containing CDK",MAPK,GSK3,"CLK families","CAMK: Calcium/calmodulin-dependent protein kinases","CYP3 family","SLCO family of organic anion transporting polypeptides","ABCG 
subfamily","ABCC subfamily","ABCB subfamily","SLC22 family of organic cation and anion transporters","1I. Vitamin D receptor-like receptors","Type II PIP kinases (1-phosphatidylinositol-5-phosphate 4-
kinase family)","TK: Tyrosine kinase","TKL: Tyrosine kinase-like","Casein kinase 1 (CK1) family","Other protein kinases","RSK family","STE20 family","DMPK family","ABC1 family","STE7 family","STE11 fa
mily","Mitogen-activated protein kinases (MAP kinases)","Myosin Light Chain Kinase (MLCK) family","Protein kinase N (PKN) family","CAMK2 family","Death-associated kinase (DAPK) family","MAPK-Activated
 Protein Kinase (MAPKAPK) family","SRPK family","Dual-specificity tyrosine-(Y)-phosphorylation regulated kinase (DYRK) family","G protein-coupled receptor kinases (GRKs)","CAMK-like (CAMKL) family","P
rotein kinase D (PKD) family","Organic cation transporters (OCT)","Receptor tyrosine kinases (RTKs)","RAF family","Non-receptor tyrosine kinases (nRTKs)","Aurora kinase (Aur) family","MSK subfamily","
SLK subfamily","Numb-associated kinase (NAK) family","GEK subfamily","ABC1-B subfamily","PEK family","Unc-51-like kinase (ULK) family","ERK subfamily","Other DMPK family kinases","Mixed Lineage Kinase
 (MLK) family","Receptor interacting protein kinase (RIPK) family","NAK family","NKF1 family","MKN subfamily","JNK subfamily","STE20 subfamily","HIPK subfamily","GRK4 subfamily","Leucine-rich repeat k
inase (LRRK) family","Polo-like kinase (PLK) family","MSN subfamily","TTK family","IKK family","Dyrk2 subfamily","QIK subfamily","Type I RTKs: ErbB (epidermal growth factor) receptor family","Janus ki
nase (JakA) family","Type III RTKs: PDGFR",CSFR,Kit,"FLT3 receptor family","Type IV RTKs: VEGF (vascular endothelial growth factor) receptor family","Src family","Type X RTKs: HGF (hepatocyte growth f
actor) receptor family","Abl family","Type XIX RTKs: Leukocyte tyrosine kinase (LTK) receptor family","Type XIII RTKs: Ephrin receptor family","GCN2 subfamily","Type XIV RTKs: RET","Type XI RTKs: TAM 
(TYRO3-","AXL- and MER-TK) receptor family","Syk family","Type XII RTKs: TIE family of angiopoietin receptors","HH498 subfamily","Csk family","Type XVI RTKs: DDR (collagen receptor) family","Ack famil
y","Tec family","Fak family","Other PEK family kinases","Type V RTKs: FGF (fibroblast growth factor) receptor family"}

> <pathway_reactome>
{"Gene expression (Transcription)","Developmental Biology","Signal Transduction","Cell Cycle",Disease,"Immune System","Vesicle-mediated transport","Muscle contraction","Cellular responses to external 
stimuli","Neuronal System","Extracellular matrix organization",Metabolism,Hemostasis,"Transport of small molecules","Programmed Cell Death","Metabolism of proteins","RNA Polymerase II Transcription","
Nervous system development","Signaling by Receptor Tyrosine Kinases","Signaling by GPCR",Mitotic,"Intracellular signaling by second messengers","Infectious disease","Innate Immune System","Membrane Tr
afficking","Cardiac conduction","Diseases of signal transduction by growth factor receptors and second messengers","Cellular responses to stress","Signaling by Hedgehog","Cytokine Signaling in Immune 
system","MAPK family signaling cascades","Signaling by Rho GTPases","Transmission across Chemical Synapses","Non-integrin membrane-ECM interactions","Signaling by Non-Receptor Tyrosine Kinases","Metab
olism of lipids","Cell surface interactions at the vascular wall","SLC-mediated transmembrane transport",Apoptosis,"Abacavir transport and metabolism","Disorders of transmembrane transporters","Post-t
ranslational protein modification","Generic Transcription Pathway","Axon guidance","Signaling by NTRKs","GPCR downstream signalling","Mitotic G1 phase and G1/S transition","Signaling by Insulin recept
or","Signaling by VEGF","PIP3 activates AKT signaling","Mitotic G2-G2/M phases","Leishmania infection","Neutrophil degranulation","trans-Golgi Network Vesicle Budding","Ion homeostasis","Signaling by 
KIT in disease","Response of EIF2AK4 (GCN2) to amino acid deficiency","Hedgehog 'on' state","Signaling by Interleukins","MAPK6/MAPK4 signaling","Signaling by PDGFR in disease","RHO GTPase Effectors","
HIV Infection","Toll-like Receptor Cascades","Neurotransmitter receptors and postsynaptic signal transmission","Clathrin-mediated endocytosis","Oncogenic MAPK signaling","M Phase","Signaling by PTK6",
"Biosynthesis of specialized proresolving mediators (SPMs)","Signaling by FGFR","Cellular Senescence","Fc epsilon receptor (FCERI) signaling","Transport of vitamins",nucleosides,"and related molecules
","Caspase activation via extrinsic apoptotic signalling pathway","Interferon Signaling","Abacavir transmembrane transport","Influenza Infection","ABC transporter disorders","MAPK1/MAPK3 signaling","S
ignaling by FGFR in disease","Sphingolipid metabolism","Transport of bile salts and organic acids","metal ions and amine compounds","Metabolism of steroids",SUMOylation,"Transcriptional Regulation by 
TP53","Semaphorin interactions","Signaling by NTRK1 (TRKA)","G alpha (q) signalling events","G1 Phase","Insulin receptor signalling cascade","VEGF ligand-receptor interactions","PTEN Regulation","G2/M
 Transition","L1CAM interactions","Parasite infection","Signaling by ROBO receptors","Transcriptional regulation by RUNX1","Golgi Associated Vesicle Biogenesis","Negative regulation of the PI3K/AKT ne
twork","EPH-Ephrin signaling","Drug resistance of KIT mutants","RET signaling","Interleukin-2 family signaling","Leishmania parasite growth and survival","Drug resistance of PDGFR mutants","RHO GTPase
s activate CIT","Host Interactions of HIV factors","Toll Like Receptor 5 (TLR5) Cascade","Activation of NMDA receptors and postsynaptic events","VEGFA-VEGFR2 Pathway","RHO GTPases activate PKNs","Carg
o recognition for clathrin-mediated endocytosis","Interleukin-1 family signaling","Signaling by RAS mutants","Mitotic Metaphase and Anaphase","G alpha (i) signalling events","PTK6 promotes HIF1A stabi
lization","Biosynthesis of DHA-derived SPMs","Signaling by FGFR4","Oxidative Stress Induced Senescence","FCERI mediated Ca+2 mobilization","Transport of organic anions","Caspase activation via Depende
nce Receptors in the absence of ligand","Interferon alpha/beta signaling","Toll Like Receptor 4 (TLR4) Cascade","NS1 Mediated Effects on Host Pathways","Defective ABCC2 causes DJS","RAF/MAP kinase cas
cade","Signaling by FGFR2 in disease","Sphingolipid de novo biosynthesis","Organic cation/anion/zwitterion transport","Bile acid and bile salt metabolism","SUMO E3 ligases SUMOylate target proteins","
Regulation of TP53 Activity","Sema4D in semaphorin signaling","Signalling to ERKs","Gastrin-CREB signalling pathway via PKC and MAPK","Cyclin D associated events in G1","IRS-mediated signalling","VEGF
 binds to VEGFR leading to receptor dimerization","Regulation of PTEN stability and activity","Centrosome maturation","Recycling pathway of L1","Leishmania phagocytosis","Role of ABL in ROBO-SLIT sign
aling","RUNX1 regulates transcription of genes involved in BCR signaling",PI5P,"PP2A and IER3 Regulate PI3K/AKT Signaling","Signalling to ERK5","EPHA-mediated growth cone collapse","Dasatinib-resistan
t KIT mutants","Interleukin-15 signaling","Anti-inflammatory response favouring Leishmania parasite infection","Imatinib-resistant PDGFR mutants","The role of Nef in HIV-1 replication and disease path
ogenesis","MyD88 cascade initiated on plasma membrane","Post NMDA receptor activation events","VEGFR2 mediated cell proliferation","Interleukin-1 signaling","EPHB-mediated forward signaling","Signalin
g downstream of RAS mutants","Mitotic Anaphase","Visual phototransduction","Biosynthesis of maresins","Negative regulation of FGFR4 signaling","Regulation of IFNA signaling","MyD88-independent TLR4 ca
scade","Inhibition of PKR","Negative regulation of MAPK pathway","FGFR2 mutant receptor activation","Organic cation transport","Recycling of bile acids and salts","SUMOylation of intracellular recepto
rs","Regulation of TP53 Activity through Acetylation","Sema4D induced cell migration and growth-cone collapse","Prolonged ERK activation events","EGFR Transactivation by Gastrin","PI3K Cascade","Loss 
of proteins required for interphase microtubule organization from the centrosome","Sema4D mediated inhibition of cell attachment and migration","FCGR3A-mediated phagocytosis","FCGR3A-mediated IL10 syn
thesis","Nef-mediates down modulation of cell surface receptors by recruiting them to clathrin adapters","MAP kinase activation","Long-term potentiation","Signalling to RAS","CREB1 phosphorylation thr
ough NMDA receptor-mediated activation of RAS signaling","Regulation of TP53 Activity through Phosphorylation","Separation of Sister Chromatids","The phototransduction cascade","Biosynthesis of maresi
n-like SPMs","Spry regulation of FGF signaling","Nef and signal transduction","Nuclear Envelope (NE) Reassembly","TRIF(TICAM1)-mediated TLR4 signaling","Negative feedback regulation of MAPK pathway","
Activated point mutants of FGFR2","PI5P Regulates TP53 Acetylation","ARMS-mediated activation","Loss of Nlp from mitotic centrosomes","Nef Mediated CD4 Down-regulation","activated TAK1 mediates p38 MA
PK activation","p38MAPK events","Ras activation upon Ca2+ influx through NMDA receptor","MAPK targets/ Nuclear events mediated by MAP kinases",Inactivation,"recovery and regulation of the phototransdu
ction cascade","Initiation of Nuclear Envelope (NE) Reformation","Activation of IRF3/IRF7 mediated by TBK1/IKK epsilon","Activation of the AP-1 family of transcription factors"}

> <broad_targets>
{EGFR,NR1I2}

> <broad_moa>
{"EGFR inhibitor"}

> <synonyms>
{"Erlotinib Hydrochloride/Tarceva,CP-358774","Erlotinib Hydrochloride/Tarceva,CP358774","Erlotinib hydrochloride",183319-69-9,183319699,"erlotinib HCl",Tarceva,OSI-774,OSI774,"OSI 774","Erlotinib (Hyd
rochloride)","CP 358774",CP-358774,CP358774,"Erlotinib HCl (OSI-744)","Erlotinib HCl (OSI744)",UNII-DA87705X9K,UNIIDA87705X9K,DA87705X9K,6,718781,S1023,"NSC 718781",erlotinib}

> <pdid>
PD003356

> <targets>
{EGFR(HER)}

> <classes>
{"Kinase inhibitor"}

> <pubchem_cids>
{176871,44263854}

$$$$
NCI_AOD5_2014
  SciTegic11012412592D

 20 22  0  0  0  0            999 V2000
    2.5981   -1.5000    0.0000 N   0  0
    1.2990   -0.7500    0.0000 C   0  0
    1.2990    0.7500    0.0000 N   0  0
    0.0000    1.5000    0.0000 C   0  0
    0.0000    3.0000    0.0000 Cl  0  0
   -1.2990    0.7500    0.0000 N   0  0
   -1.2990   -0.7500    0.0000 C   0  0
   -2.4133   -1.7530    0.0000 N   0  0
   -1.8032   -3.1233    0.0000 C   0  0
   -0.3114   -2.9665    0.0000 N   0  0
    0.0000   -1.5000    0.0000 C   0  0
   -3.8813   -1.4408    0.0000 C   0  0
   -4.8896   -2.5354    0.0000 O   0  0
   -6.2433   -1.8893    0.0000 C   0  0
   -7.5587   -2.6066    0.0000 C   0  0
   -7.5961   -4.1061    0.0000 O   0  0
   -6.0471   -0.4022    0.0000 C   0  0
   -7.1349    0.6307    0.0000 O   0  0
   -4.5721   -0.1292    0.0000 C   0  0
   -3.9177    1.2205    0.0000 F   0  0
  1  2  1  0
  2  3  2  0
  3  4  1  0
  4  5  1  0
  4  6  2  0
  6  7  1  0
  7  8  1  0
  8  9  1  0
  9 10  2  0
 10 11  1  0
 11  2  1  0
 11  7  2  0
  8 12  1  0
 12 13  1  0
 13 14  1  0
 14 15  1  0
 15 16  1  0
 14 17  1  0
 17 18  1  0
 17 19  1  0
 19 12  1  0
 19 20  1  0
M  END
> <name>
NCI_AOD5_2014

> <id>
2647

> <plate>
NCI_V5_B

> <well>
B06

> <supplier_cmpd_name>
Clofarabine

> <ctcr_id>
1739

> <supplier_cmpd_id>
606869

> <smiles>
Nc1nc(Cl)nc2n(cnc12)C3OC(CO)C(O)C3F

> <pd_targets>
{RRM2,PDE2A,RRM1,POLA1,POLA2,POLD1,POLD2,POLD3,POLD4,POLE,POLE2,POLE3,PRIM1,PRIM2,RRM2B}

> <pathway_gtopdb>
{Enzyme,Oxidoreductase,Phosphodiesterase,Transferase,"Phosphodiesterase 2","Phosphodiesterase 2A"}

> <pathway_chembl>
{Enzymes,"1.17.4.1 Ribonucleoside-diphosphate reductases","Cyclic nucleotide turnover/signalling",Phosphodiesterases,3',"5'-cyclic nucleotide (PDEs)"}

> <pathway_reactome>
{"Cell Cycle",Hemostasis,Metabolism,Mitotic,"Platelet homeostasis","Metabolism of nucleotides","Mitotic G1 phase and G1/S transition","Nitric oxide stimulates guanylate cyclase","Interconversion of nu
cleotide di- and triphosphates","G1/S Transition","cGMP effects","G1/S-Specific Transcription","E2F mediated regulation of DNA replication","Inhibition of replication initiation of damaged DNA by RB1/
E2F1"}

> <broad_targets>
{POLA1,POLD1,POLE,RRM1,RRM2,RRM2B}

> <broad_moa>
{"ribonucleotide reductase inhibitor"}

> <synonyms>
{CHEMBL277800,5-(6-amino-2-chloro-9-purinyl)-4-fluoro-2-(hydroxymethyl)-3-oxolanol,5(6amino2chloro9purinyl)4fluoro2(hydroxymethyl)3oxolanol,"Clolar (Genzyme)",SCHEMBL2887297,CHEBI:91901,HMS3269F07,HMS
3654D03,491594-60-6,491594606,BDBM50008368,NSC606869,5-(6-amino-2-chloropurin-9-yl)-4-fluoro-2-(hydroxymethyl)o,5(6amino2chloropurin9yl)4fluoro2(hydroxymethyl)o,606869,S1218,"NSC 606869",Clofarabine}

> <pdid>
PD001322

> <targets>
{DNA/RNA Synthesis,Apoptosis,Autophagy,Nucleoside Antimetabolite/Analog}

> <classes>
{DNA Damage,Nucleoside Metabolic Inhibitor,Apoptosis,Autophagy,Cell Cycle/DNA Damage}

> <pubchem_cids>
{354624}

$$$$
NCI_AOD5_2014
  SciTegic11012412592D

 26 27  0  0  0  0            999 V2000
    2.5218  -20.0215    0.0000 C   0  0
    1.7745  -18.7209    0.0000 C   0  0
    2.5268  -17.4222    0.0000 C   0  0
    1.7791  -16.1209    0.0000 C   0  0
    2.5314  -14.8223    0.0000 C   0  0
    1.7837  -13.5210    0.0000 C   0  0
    2.5359  -12.2223    0.0000 C   0  0
    1.7882  -10.9210    0.0000 C   0  0
    2.5405   -9.6223    0.0000 C   0  0
    1.7928   -8.3210    0.0000 C   0  0
    2.5451   -7.0223    0.0000 C   0  0
    1.7974   -5.7210    0.0000 C   0  0
    2.5497   -4.4224    0.0000 S   0  0
    1.8032   -3.1233    0.0000 C   0  0
    2.4133   -1.7530    0.0000 N   0  0
    1.2990   -0.7500    0.0000 C   0  0
    1.2990    0.7500    0.0000 C   0  0
    2.5981    1.5000    0.0000 O   0  0
    0.0000    1.5000    0.0000 N   0  0
    0.0000    3.0000    0.0000 C   0  0
   -1.2990    0.7500    0.0000 C   0  0
   -2.5981    1.5000    0.0000 O   0  0
   -1.2990   -0.7500    0.0000 N   0  0
   -2.5981   -1.5000    0.0000 C   0  0
    0.0000   -1.5000    0.0000 C   0  0
    0.3114   -2.9665    0.0000 N   0  0
  1  2  1  0
  2  3  1  0
  3  4  1  0
  4  5  1  0
  5  6  1  0
  6  7  1  0
  7  8  1  0
  8  9  1  0
  9 10  1  0
 10 11  1  0
 11 12  1  0
 12 13  1  0
 13 14  1  0
 14 15  1  0
 15 16  1  0
 16 17  1  0
 17 18  2  0
 17 19  1  0
 19 20  1  0
 19 21  1  0
 21 22  2  0
 21 23  1  0
 23 24  1  0
 23 25  1  0
 25 16  2  0
 25 26  1  0
 26 14  2  0
M  END
> <name>
NCI_AOD5_2014

> <id>
2648

> <plate>
NCI_V5_B

> <well>
B07

> <supplier_cmpd_name>
8-dodecylsulfanyl-1,3-dimethyl-7H-purine-2,6-dione

> <ctcr_id>
5145

> <supplier_cmpd_id>
8-dodecylsulfanyl-1,3-dimethyl-7H-purine-2,6-dione

> <smiles>
CCCCCCCCCCCCSc1[nH]c2C(=O)N(C)C(=O)N(C)c2n1

> <pd_targets>
.

> <pathway_gtopdb>
.

> <pathway_chembl>
.

> <pathway_reactome>
.

> <broad_targets>
.

> <broad_moa>
.

> <synonyms>
{NSC77351,NCIOpen2_008426,NCIOpen2008426,NCIOpen2-008426,"NCIOpen2 008426",ZINC1713385,NSC-77351,77351,"8-dodecylsulfanyl-1,3-dimethyl-7H-purine-2,6-dione"}

> <pdid>

> <targets>
{}

> <classes>
{NoneGiven}

> <pubchem_cids>
{253871}

$$$$
NCI_AOD5_2014
  SciTegic11012412592D

 34 38  0  0  0  0            999 V2000
    4.4991   -8.4771    0.0000 O   0  0
    3.8490   -7.1253    0.0000 C   0  0
    4.6946   -5.8864    0.0000 C   0  0
    4.0445   -4.5346    0.0000 C   0  0
    2.5536   -4.4230    0.0000 C   0  0
    1.7031   -5.6606    0.0000 C   0  0
    2.3532   -7.0124    0.0000 C   0  0
    1.8032   -3.1233    0.0000 C   0  0
    0.3114   -2.9665    0.0000 S   0  0
    0.0000   -1.5000    0.0000 C   0  0
   -1.2990   -0.7500    0.0000 C   0  0
   -1.2990    0.7500    0.0000 C   0  0
   -2.5981    1.5000    0.0000 O   0  0
    0.0000    1.5000    0.0000 C   0  0
    1.2990    0.7500    0.0000 C   0  0
    1.2990   -0.7500    0.0000 C   0  0
    2.4133   -1.7530    0.0000 C   0  0
    3.8794   -1.4442    0.0000 C   0  0
    4.3452   -0.0184    0.0000 O   0  0
    4.8823   -2.5608    0.0000 C   0  0
    6.3506   -2.2538    0.0000 C   0  0
    7.3506   -3.3718    0.0000 C   0  0
    6.8824   -4.7969    0.0000 C   0  0
    7.8807   -5.9176    0.0000 O   0  0
    7.4102   -7.3427    0.0000 C   0  0
    8.4085   -8.4634    0.0000 C   0  0
    7.9380   -9.8886    0.0000 N   0  0
    8.9341  -11.0101    0.0000 C   0  0
    8.4610  -12.4335    0.0000 C   0  0
    6.9917  -12.7355    0.0000 C   0  0
    5.9956  -11.6141    0.0000 C   0  0
    6.4687  -10.1906    0.0000 C   0  0
    5.4142   -5.1039    0.0000 C   0  0
    4.4141   -3.9859    0.0000 C   0  0
  1  2  1  0
  2  3  2  0
  3  4  1  0
  4  5  2  0
  5  6  1  0
  6  7  2  0
  7  2  1  0
  5  8  1  0
  8  9  1  0
  9 10  1  0
 10 11  2  0
 11 12  1  0
 12 13  1  0
 12 14  2  0
 14 15  1  0
 15 16  2  0
 16 10  1  0
 16 17  1  0
 17  8  2  0
 17 18  1  0
 18 19  2  0
 18 20  1  0
 20 21  2  0
 21 22  1  0
 22 23  2  0
 23 24  1  0
 24 25  1  0
 25 26  1  0
 26 27  1  0
 27 28  1  0
 28 29  1  0
 29 30  1  0
 30 31  1  0
 31 32  1  0
 32 27  1  0
 23 33  1  0
 33 34  2  0
 34 20  1  0
M  END
> <name>
NCI_AOD5_2014

> <id>
2649

> <plate>
NCI_V5_B

> <well>
B08

> <supplier_cmpd_name>
Raloxifene

> <ctcr_id>
4185

> <supplier_cmpd_id>
747974

> <smiles>
Oc1ccc(cc1)c2sc3cc(O)ccc3c2C(=O)c4ccc(OCCN5CCCCC5)cc4

> <pd_targets>
{ESR1,MAPT,FFP,ALOX15,TP53,UBE2N,ESR2,LMNA,ALDH1A1,AMPC,NPSR1,FTL,HTT,LEF,BLM,NFO,NS1,HSD17B10,RORC,PMP22,GMNN,KMT2A,CYP3A4,HLA-A,MEN1,AOX1,PLD1,CYP2D6,ADRA1A,C5,CYP2C19,CYP2C9,NFKB1,HTR1B,GPER1,EBP,T
HPO,SIGMAR1,ERG2,TSHR,CHRM1,PLD2,ADRA1B,RECQL,NR1H4,HTR2B,ADRA2B,DRD3,TACR2,MTOR,SLC6A3,OPRD1,FYN,SLC6A4,NR1I2,ACHE,ADRA1D,OPRK1,OPRM1,HTR2C,ADRA2A,ADRA2C,HTR2A,SLC6A2,DRD2,HTR6,ADORA2A}

> <pathway_gtopdb>
{"Transcription factor","Other cytosolic protein",Enzyme,"Other nuclear protein","Membrane receptor","Unclassified protein","Epigenetic regulator","Surface antigen","Secreted protein",Transporter,"Nuc
lear receptor",Transferase,Oxidoreductase,Aminoacyltransferase,Hydrolase,"Family A G protein-coupled receptor",Protease,Reader,"Cytochrome P450",Isomerase,Kinase,"Electrochemical transporter","Nuclear
 hormone receptor subfamily 3","Peptide receptor (family A GPCR)","Metallo protease","Nuclear hormone receptor subfamily 1",Bromodomain,"Cytochrome P450 family 3","Cytochrome P450 family 2","Small mol
ecule receptor (family A GPCR)","Cysteine protease","Protein Kinase","SLC superfamily of solute carriers","Nuclear hormone receptor subfamily 3 group A","Short peptide receptor (family A GPCR)","Metal
lo protease MAE clan","Nuclear hormone receptor subfamily 1 group F","Cytochrome P450 family 3A","Cytochrome P450 family 2D","Monoamine receptor","Cytochrome P450 family 2C","Cysteine protease CA clan
","Lipid-like ligand receptor (family A GPCR)","Glycohormone receptor","Nuclear hormone receptor subfamily 1 group H","Atypical protein kinase group","SLC06 neurotransmitter transporter family","TK pr
otein kinase group","Nuclear hormone receptor subfamily 1 group I","Nucleotide-like receptor (family A GPCR)","Nuclear hormone receptor subfamily 3 group A member 1","Nuclear hormone receptor subfamil
y 3 group A member 2","Neuropeptide receptor","Metallo protease M34 family","Nuclear hormone receptor subfamily 1 group F member 3","Cytochrome P450 3A4","Cytochrome P450 2D6","Adrenergic receptor","C
ytochrome P450 2C19","Cytochrome P450 2C9","Cysteine protease C1A family","Serotonin receptor","Steroid-like ligand receptor","Acetylcholine receptor","Nuclear hormone receptor subfamily 1 group H mem
ber 4","Dopamine receptor","Neurokinin receptor","Atypical protein kinase PIKK family","Opioid receptor","Tyrosine protein kinase Src family","Nuclear hormone receptor subfamily 1 group I member 2","A
denosine receptor","Atypical protein kinase FRAP subfamily","Tyrosine protein kinase SrcA"}

> <pathway_chembl>
{Receptors,Enzymes,"Other protein targets",Transporters,"Nuclear hormone receptors","Eicosanoid turnover","G protein-coupled receptors","Chromatin modifying enzymes","Cytochrome P450","Glycerophosphol
ipid turnover","Sigma receptors","Kinases (EC 2.7.x.x)","SLC superfamily of solute carriers","Catalytic receptors","Acetylcholine turnover","Steroid hormone receptors",Lipoxygenases,"Neuropeptide S re
ceptor","1F. Retinoic acid-related orphans","2.1.1.43 Histone methyltransferases (HMTs)","CYP3 family","Phosphatidylcholine-specific phospholipase D","CYP2 family: drug metabolising subset",Adrenocept
ors,"5-Hydroxytryptamine receptors","G protein-coupled estrogen receptor","Glycoprotein hormone receptors","Acetylcholine receptors (muscarinic)","1H. Liver X receptor-like receptors","Dopamine recept
ors","Tachykinin receptors",Atypical,"SLC6 neurotransmitter transporter family","Opioid receptors","Receptor kinases","1I. Vitamin D receptor-like receptors","Adenosine receptors","3A. Estrogen recept
ors","Phosphatidyl inositol 3' kinase-related kinases (PIKK) family","Monoamine transporter subfamily","TK: Tyrosine kinase","FRAP subfamily","Non-receptor tyrosine kinases (nRTKs)","Src family"}

> <pathway_reactome>
{"Gene expression (Transcription)","Neuronal System",Metabolism,"Cell Cycle","Immune System","Signal Transduction",Disease,"Vesicle-mediated transport","DNA Repair","Developmental Biology",Hemostasis,
"Metabolism of proteins","RNA Polymerase II Transcription","Transmission across Chemical Synapses","Metabolism of lipids","Cell Cycle Checkpoints","Innate Immune System","Intracellular signaling by se
cond messengers",Mitotic,"Biological oxidations","Infectious disease","Membrane Trafficking","DNA Double-Strand Break Repair","Metabolism of amino acids and derivatives","Nervous system development","
Adaptive Immune System","Metabolism of vitamins and cofactors","Signaling by GPCR","Cytokine Signaling in Immune system","Platelet activation","signaling and aggregation","Disorders of transmembrane t
ransporters","Post-translational protein modification","Generic Transcription Pathway","Neurotransmitter receptors and postsynaptic signal transmission","Biosynthesis of specialized proresolving media
tors (SPMs)","G1/S DNA Damage Checkpoints","Toll-like Receptor Cascades","PIP3 activates AKT signaling","M Phase","Phase I - Functionalization of compounds","Leishmania infection","trans-Golgi Network
 Vesicle Budding","Uptake and actions of bacterial toxins","Homology Directed Repair","Branched-chain amino acid catabolism","EGR2 and SOX10-mediated initiation of Schwann cell myelination","Mitotic G
1 phase and G1/S transition","Class I MHC mediated antigen processing & presentation","Metabolism of water-soluble vitamins and cofactors","Phospholipid metabolism","GPCR ligand binding","Signaling by
 Interleukins","Metabolism of steroids","Platelet Aggregation (Plug Formation)","SARS-CoV Infections","SLC transporter disorders","HIV Infection","Neurotransmitter clearance",SUMOylation,"GPCR downstr
eam signalling","Transcriptional regulation by RUNX1","Activation of NMDA receptors and postsynaptic events","Biosynthesis of DPA-derived SPMs","p53-Dependent G1/S DNA damage checkpoint","Toll Like Re
ceptor 4 (TLR4) Cascade","Negative regulation of the PI3K/AKT network","Mitotic Metaphase and Anaphase","Ethanol oxidation","Leishmania parasite growth and survival","Golgi Associated Vesicle Biogenes
is","Transcriptional Regulation by MECP2","Uptake and function of anthrax toxins","HDR through Homologous Recombination (HRR) or Single Strand Annealing (SSA)","Transcriptional regulation by RUNX3","G
1/S Transition","Biosynthesis of DHA-derived SPMs","Antigen processing-Cross presentation","Vitamins B6 activation to pyridoxal phosphate","Glycerophospholipid biosynthesis","Cytochrome P450 - arrange
d by substrate type","Class A/1 (Rhodopsin-like receptors)","Interleukin-1 family signaling","Cholesterol biosynthesis","Potential therapeutics for SARS","Bile acid and bile salt metabolism","Transcri
ptional Regulation by TP53","Defective SLC6A3 causes Parkinsonism-dystonia infantile (PKDYS)","Host Interactions of HIV factors","Serotonin clearance from the synaptic cleft","SUMO E3 ligases SUMOylat
e target proteins","G alpha (i) signalling events","Defective SLC6A2 causes orthostatic intolerance (OI)","RUNX1 regulates estrogen receptor mediated transcription","Post NMDA receptor activation even
ts","Biosynthesis of DPAn-3 SPMs","p53-Dependent G1 DNA Damage Response","MyD88-independent TLR4 cascade",PI5P,"PP2A and IER3 Regulate PI3K/AKT Signaling","Mitotic Anaphase","Anti-inflammatory respons
e favouring Leishmania parasite infection","Regulation of MECP2 expression and activity","HDR through Homologous Recombination (HRR)","RUNX3 Regulates Immune Response and Cell Migration","Activation o
f the pre-replicative complex","RUNX1 regulates genes involved in megakaryocyte differentiation and platelet function","Biosynthesis of maresins","Endosomal/Vacuolar pathway","Synthesis of PA",Xenobio
tics,"Amine ligand-binding receptors","Peptide ligand-binding receptors","Interleukin-1 signaling","Cholesterol biosynthesis via desmosterol","Synthesis of bile acids and bile salts","Regulation of TP
53 Activity","The role of Nef in HIV-1 replication and disease pathogenesis","SUMOylation of intracellular receptors","Synthesis of PC","MECP2 regulates neuronal receptors and channels","Opioid Signal
ling","Activation of AMPK downstream of NMDARs","Biosynthesis of DPAn-3-derived protectins and resolvins","Stabilization of p53","TRIF(TICAM1)-mediated TLR4 signaling","Nuclear Envelope (NE) Reassembl
y","ADORA2B mediated anti-inflammatory cytokines production","Homologous DNA Pairing and Strand Exchange","Biosynthesis of maresin-like SPMs","CYP2E1 reactions",Adrenoceptors,"MAP3K8 (TPL2)-dependent 
MAPK1/3 activation","Serotonin receptors","Muscarinic acetylcholine receptors","Synthesis of bile acids and bile salts via 27-hydroxycholesterol","Dopamine receptors","Tachykinin receptors bind tachyk
inins","Regulation of TP53 Expression and Degradation","Nef and signal transduction","G-protein activation","Autodegradation of the E3 ubiquitin ligase COP1","IKK complex recruitment mediated by RIP1"
,"Initiation of Nuclear Envelope (NE) Reformation","Presynaptic phase of homologous DNA pairing and strand exchange","Regulation of TP53 Degradation"}

> <broad_targets>
{ESR1,ESR2}

> <broad_moa>
{"estrogen receptor antagonist","selective estrogen receptor modulator (SERM)"}

> <synonyms>
{raloxifene,84449-90-1,84449901,Keoxifene,Evista,"Raloxifenum (Latin)","Raloxifeno (Spanish)",Raloxifenum,Raloxifeno,"LY 139481",LY-139481,LY139481,UNII-YX9162EO3I,UNIIYX9162EO3I,Optruma,CHEMBL81,"Keo
xifene; LY 139481;",CHEBI:8772,YX9162EO3I,RAL,"Raloxifene (INN:BAN)",T1549,747974,"NSC 747974","Raloxifene hydrochloride",Raloxifene}

> <pdid>
PD004108

> <targets>
{}

> <classes>
{SERM}

> <pubchem_cids>
{5035}

$$$$
NCI_AOD5_2014
  SciTegic11012412592D

 19 21  0  0  0  0            999 V2000
    2.5981   -1.5000    0.0000 N   0  0
    1.2990   -0.7500    0.0000 C   0  0
    1.2990    0.7500    0.0000 C   0  0
    0.0000    1.5000    0.0000 C   0  0
   -1.2990    0.7500    0.0000 C   0  0
   -1.2990   -0.7500    0.0000 C   0  0
   -2.4133   -1.7530    0.0000 C   0  0
   -3.8805   -1.4410    0.0000 O   0  0
   -1.8032   -3.1233    0.0000 N   0  0
   -0.3114   -2.9665    0.0000 C   0  0
    0.0000   -1.5000    0.0000 C   0  0
   -2.5536   -4.4230    0.0000 C   0  0
   -1.7031   -5.6606    0.0000 C   0  0
   -2.3532   -7.0124    0.0000 C   0  0
   -3.8489   -7.1253    0.0000 C   0  0
   -4.4991   -8.4771    0.0000 O   0  0
   -4.6946   -5.8864    0.0000 N   0  0
   -4.0444   -4.5346    0.0000 C   0  0
   -4.8897   -3.2954    0.0000 O   0  0
  1  2  1  0
  2  3  2  0
  3  4  1  0
  4  5  2  0
  5  6  1  0
  6  7  1  0
  7  8  2  0
  7  9  1  0
  9 10  1  0
 10 11  1  0
 11  2  1  0
 11  6  2  0
  9 12  1  0
 12 13  1  0
 13 14  1  0
 14 15  1  0
 15 16  2  0
 15 17  1  0
 17 18  1  0
 18 12  1  0
 18 19  2  0
M  END
> <name>
NCI_AOD5_2014

> <id>
2650

> <plate>
NCI_V5_B

> <well>
B09

> <supplier_cmpd_name>
Lenalidomide

> <ctcr_id>
572

> <supplier_cmpd_id>
747972

> <smiles>
Nc1cccc2C(=O)N(Cc12)C3CCC(=O)NC3=O

> <pd_targets>
{IL6,TNF,CRBN,MDC1,IL1B,IKZF3,IKZF1,CUL4A,DDB1,RBX1,TNFSF11,CDH5,PTGS2}

> <pathway_gtopdb>
{"Secreted protein","Unclassified protein",Enzyme,Oxidoreductase}

> <pathway_chembl>
{Enzymes,"E3 ubiquitin ligase components","Eicosanoid turnover",Cyclooxygenase}

> <pathway_reactome>
{Disease,"Immune System","DNA Repair","Signal Transduction",Metabolism,"Infectious disease","Cytokine Signaling in Immune system","DNA Double-Strand Break Repair","Signaling by Receptor Tyrosine Kinas
es","Metabolism of lipids","Leishmania infection","Signaling by Interleukins","SARS-CoV Infections","Homology Directed Repair","TNFR2 non-canonical NF-kB pathway","Signaling by VEGF","Biosynthesis of 
specialized proresolving mediators (SPMs)","Leishmania parasite growth and survival","Interleukin-10 signaling","Potential therapeutics for SARS","HDR through Homologous Recombination (HRR) or Single 
Strand Annealing (SSA)","Cell recruitment (pro-inflammatory response)","TNF receptor superfamily (TNFSF) members mediating non-canonical NF-kB pathway","VEGFA-VEGFR2 Pathway","Biosynthesis of DPA-deri
ved SPMs","Anti-inflammatory response favouring Leishmania parasite infection","Processing of DNA double-strand break ends","Purinergic signaling in leishmaniasis infection","VEGFR2 mediated vascular 
permeability","Biosynthesis of DPAn-3 SPMs","ADORA2B mediated anti-inflammatory cytokines production"}

> <broad_targets>
{TNF}

> <broad_moa>
{"anticancer agent"}

> <synonyms>
{Lenalidomide,191732-72-6,191732726,Revlimid,Revimid,"3-(4-Amino-1-oxoisoindolin-2-yl)piperidine-2,6-dione","3(4Amino1oxoisoindolin2yl)piperidine2,6dione",CC-5013,CC5013,"Lenalidomide (CC-5013)","Lena
lidomide (CC5013)","CDC 501",IMiD3,"CC 5013",CDC-501,CDC501,"3-(4-Amino-1-oxo-1,3-dihydro-2H-isoindol-2-yl)piperidine-2,6-dione","3(4Amino1oxo1,3dihydro2Hisoindol2yl)piperidine2,6dione",2,6-Pipe,6Pipe
,T1642,747972,"NSC 747972",LENALIDOMIDE}

> <pdid>
PD004118

> <targets>
{"TNF-alpha Inhibitors"}

> <classes>
{"immunomodulatory agent"}

> <pubchem_cids>
{216326}

$$$$
NCI_AOD5_2014
  SciTegic11012412592D

  5  4  0  0  0  0            999 V2000
    0.0007    0.0004    0.0000 O   0  0
    1.3000    0.7500    0.0000 As  0  0
    2.6000    0.0000    0.0000 O   0  0
    3.9000    0.7500    0.0000 As  0  0
    5.1992    0.0004    0.0000 O   0  0
  1  2  2  0
  2  3  1  0
  3  4  1  0
  4  5  2  0
M  END
> <name>
NCI_AOD5_2014

> <id>
2651

> <plate>
NCI_V5_B

> <well>
B10

> <supplier_cmpd_name>
Arsenic trioxide

> <ctcr_id>
3234

> <supplier_cmpd_id>
92859

> <smiles>
O=[As]O[As]=O

> <pd_targets>
{IKBKB,TXNRD1,JUN,CCND1,MAPK3,MAPK1,AKT1,LMNA}

> <pathway_gtopdb>
{Enzyme,"Transcription factor","Other cytosolic protein","Other nuclear protein",Kinase,Oxidoreductase,"Protein Kinase","Other protein kinase group","CMGC protein kinase group","AGC protein kinase gro
up","Other protein kinase IKK family","CMGC protein kinase MAPK family","AGC protein kinase AKT family","CMGC protein kinase ERK1"}

> <pathway_chembl>
{Receptors,Enzymes,"Catalytic receptors","Kinases (EC 2.7.x.x)","Receptor kinases","CMGC: Containing CDK",MAPK,GSK3,"CLK families","AGC: Containing PKA",PKG,"PKC families","Other protein kinases","Mit
ogen-activated protein kinases (MAP kinases)","Akt (Protein kinase B","PKB) family","IKK family","ERK subfamily"}

> <pathway_reactome>
{"Immune System","Gene expression (Transcription)","Cell Cycle","Innate Immune System","RNA Polymerase II Transcription",Mitotic,"Toll-like Receptor Cascades","Generic Transcription Pathway","Mitotic 
G1 phase and G1/S transition","M Phase","Toll Like Receptor 4 (TLR4) Cascade","Transcriptional Regulation by TP53","Toll Like Receptor 5 (TLR5) Cascade","G1 Phase","Mitotic Metaphase and Anaphase","My
D88-independent TLR4 cascade","TP53 Regulates Metabolic Genes","MyD88 cascade initiated on plasma membrane","Cyclin D associated events in G1","Regulation of TP53 Activity","Mitotic Anaphase","TRIF(TI
CAM1)-mediated TLR4 signaling","MAP kinase activation","Regulation of TP53 Expression and Degradation","Nuclear Envelope (NE) Reassembly","IKK complex recruitment mediated by RIP1","MAPK targets/ Nucl
ear events mediated by MAP kinases","Regulation of TP53 Degradation","Initiation of Nuclear Envelope (NE) Reformation","Activation of the AP-1 family of transcription factors","ERK/MAPK targets","ERKs
 are inactivated"}

> <broad_targets>
{AKT1,CCND1,IKBKB,JUN,MAPK1,MAPK3,TXNRD1}

> <broad_moa>
{"apoptosis stimulant"}

> <synonyms>
{MFCD00003433,arsenic-trioxide,arsenictrioxide,A1010_SIAL,A1010SIAL,A1010-SIAL,"A1010 SIAL",CHEMBL1200978,"Arsenic(III) oxide, elec. gr.",NSC92859,"Arsenic(III) oxide, Puratronic(R)","Arsenic(III) oxi
de, primary standard",AKOS015903780,"CID 261004",DB01169,"Arsenic(III) oxide",p.a.,99.,T0046,92859,"NSC 92859","Arsenic oxide (3)","Arsenic trioxide"}

> <pdid>
PD004128

> <targets>
{}

> <classes>
{"Natural product"}

> <pubchem_cids>
{261004}

$$$$
NCI_AOD5_2014
  SciTegic11012412592D

 17 18  0  0  0  0            999 V2000
    7.0533   -0.4702    0.0000 O   0  0
    6.4430   -1.8405    0.0000 C   0  0
    4.9531   -1.9978    0.0000 C   0  0
    3.9511   -0.8815    0.0000 O   0  0
    2.5987   -1.5004    0.0000 C   0  0
    2.7343   -2.9815    0.0000 C   0  0
    4.2010   -3.2956    0.0000 C   0  0
    4.8089   -4.6669    0.0000 O   0  0
    1.2990   -0.7500    0.0000 N   0  0
    1.2990    0.7500    0.0000 C   0  0
    0.0000    1.5000    0.0000 C   0  0
    0.0000    3.0000    0.0000 F   0  0
   -1.2990    0.7500    0.0000 C   0  0
   -2.5981    1.5000    0.0000 O   0  0
   -1.2990   -0.7500    0.0000 N   0  0
    0.0000   -1.5000    0.0000 C   0  0
    0.0000   -3.0000    0.0000 O   0  0
  1  2  1  0
  2  3  1  0
  3  4  1  0
  4  5  1  0
  5  6  1  0
  6  7  1  0
  7  3  1  0
  7  8  1  0
  5  9  1  0
  9 10  1  0
 10 11  2  3
 11 12  1  0
 11 13  1  0
 13 14  2  0
 13 15  1  0
 15 16  1  0
 16  9  1  0
 16 17  2  0
M  END
> <name>
NCI_AOD5_2014

> <id>
2652

> <plate>
NCI_V5_B

> <well>
B11

> <supplier_cmpd_name>
Floxuridine

> <ctcr_id>
2655

> <supplier_cmpd_id>
27640

> <smiles>
OCC1OC(CC1O)N2C=C(F)C(=O)NC2=O

> <pd_targets>
{SMN1,MAPT,TMK,TK1,ALDH1A1,TP53,CHRM1,KMT2A,MEN1,MTOR,TYMS,LMNA,TGR,SKA,UL23}

> <pathway_gtopdb>
{"Epigenetic regulator","Other cytosolic protein",Enzyme,"Transcription factor","Membrane receptor",Reader,Transferase,Oxidoreductase,"Family A G protein-coupled receptor",Kinase,"Methyl-lysine/argini
ne binding protein","Small molecule receptor (family A GPCR)",Bromodomain,"Protein Kinase","Tudor domain","Monoamine receptor","Atypical protein kinase group","Acetylcholine receptor","Atypical protei
n kinase PIKK family","Atypical protein kinase FRAP subfamily","Other nuclear protein"}

> <pathway_chembl>
{Receptors,Enzymes,"G protein-coupled receptors","Kinases (EC 2.7.x.x)","Acetylcholine receptors (muscarinic)",Atypical,"Phosphatidyl inositol 3' kinase-related kinases (PIKK) family","FRAP subfamily"
,"2.1.1.- Methyltransferases"}

> <pathway_reactome>
{"Metabolism of RNA","Neuronal System","Cell Cycle",Metabolism,"Signal Transduction","Gene expression (Transcription)","Metabolism of non-coding RNA","Transmission across Chemical Synapses",Mitotic,"B
iological oxidations","Cell Cycle Checkpoints","Signaling by GPCR","RNA Polymerase II Transcription","snRNP Assembly","Neurotransmitter receptors and postsynaptic signal transmission","Mitotic G1 phas
e and G1/S transition","Phase I - Functionalization of compounds","G1/S DNA Damage Checkpoints","GPCR ligand binding","Generic Transcription Pathway","Activation of NMDA receptors and postsynaptic eve
nts","G1/S Transition","Ethanol oxidation","p53-Dependent G1/S DNA damage checkpoint","Class A/1 (Rhodopsin-like receptors)","Transcriptional Regulation by TP53","Post NMDA receptor activation events"
,"G1/S-Specific Transcription","p53-Dependent G1 DNA Damage Response","Amine ligand-binding receptors","Regulation of TP53 Activity","Activation of AMPK downstream of NMDARs","Stabilization of p53","M
uscarinic acetylcholine receptors","Regulation of TP53 Expression and Degradation","Autodegradation of the E3 ubiquitin ligase COP1","Regulation of TP53 Degradation","M Phase","Mitotic Metaphase and A
naphase","Mitotic Anaphase","Nuclear Envelope (NE) Reassembly","Initiation of Nuclear Envelope (NE) Reformation"}

> <broad_targets>
{}

> <broad_moa>
{"DNA directed DNA polymerase inhibitor","DNA synthesis inhibitor"}

> <synonyms>
{5-Fluoro-2'-deoxyuridine,5Fluoro2'deoxyuridine,"5 Fluoro 2' deoxyuridine",Floxuridin,FdUrd,Deoxyfluorouridine,"NSC 27640","Uridine, 2'-deoxy-5-fluoro-","Uridine, 2'deoxy5fluoro","Uridine, 2' deoxy 5 
fluoro",2968-28-7,2968287,"2968 28 7",5-FUD,5FUD,27640,SAM002589947,Floxuridine,CPD001496941}

> <pdid>
PD001094

> <targets>
{}

> <classes>
{"Thymidylate synthetase inhibitor"}

> <pubchem_cids>
{3363}

$$$$
NCI_AOD5_2014
  SciTegic11012412592D

 65 72  0  0  1  0            999 V2000
    2.3980    5.1974    0.0000 C   0  0
    1.0617    4.5159    0.0000 C   0  0
   -0.2000    5.2900    0.0000 C   0  0  2  0  0  0
   -0.2341    6.7896    0.0000 O   0  0
   -0.2000    4.0900    0.0000 C   0  0
   -1.2300    3.5100    0.0000 C   0  0  1  0  0  0
   -2.2500    4.0900    0.0000 C   0  0
   -2.2500    5.2900    0.0000 N   0  0
   -3.9200    5.5000    0.0000 C   0  0
   -5.4100    4.7800    0.0000 C   0  0
   -5.7000    3.1300    0.0000 C   0  0
   -4.9700    1.7900    0.0000 C   0  0
   -6.0100    0.6800    0.0000 N   0  0
   -7.4000    1.3200    0.0000 C   0  0
   -8.8100    0.7400    0.0000 C   0  0
  -10.0200    1.6700    0.0000 C   0  0
   -9.8300    3.1800    0.0000 C   0  0
   -8.4200    3.7700    0.0000 C   0  0
   -7.2000    2.8400    0.0000 C   0  0
   -3.3800    1.2800    0.0000 C   0  0  1  0  0  0
   -1.8700    1.9700    0.0000 C   0  0
   -4.3011    0.1350    0.0000 C   0  0
   -5.7734    0.4218    0.0000 O   0  0
   -3.8135   -1.2844    0.0000 O   0  0
   -4.7977   -2.4164    0.0000 C   0  0
   -2.3301    0.2513    0.0000 C   0  0
   -2.7110   -1.1720    0.0000 C   0  0
   -1.6165   -2.2180    0.0000 C   0  0
   -0.2693   -1.8150    0.0000 C   0  0
    0.1414   -0.3694    0.0000 C   0  0
   -0.9061    0.6597    0.0000 C   0  0
   -0.5303    2.1129    0.0000 O   0  0
    0.4332    2.3808    0.0000 C   0  0
    0.6269   -3.0200    0.0000 N   0  0
    2.1244   -3.0533    0.0000 C   0  0
    2.8460   -4.3683    0.0000 O   0  0
   -0.2779   -4.1651    0.0000 C   0  0  1  0  0  0
   -0.0140   -5.6041    0.0000 C   0  0  2  0  0  0
    1.0936   -4.5926    0.0000 O   0  0
   -1.1529   -6.6124    0.0000 C   0  0  2  0  0  0
   -0.8799   -8.0880    0.0000 O   0  0
    0.5342   -8.5906    0.0000 C   0  0
    1.2952   -7.9418    0.0000 C   0  0
    0.8068  -10.0656    0.0000 O   0  0
   -2.5335   -6.1188    0.0000 C   0  0  2  0  0  0
   -2.2630   -7.5946    0.0000 C   0  0
   -3.0242   -8.2431    0.0000 C   0  0
   -3.6287   -7.0542    0.0000 C   0  0
   -5.0406   -6.5494    0.0000 C   0  0
   -5.3459   -4.5824    0.0000 C   0  0
   -4.0445   -3.8623    0.0000 N   0  0
   -3.7291   -2.4358    0.0000 C   0  0
   -2.2452   -2.2939    0.0000 C   0  0
   -1.6741   -3.6659    0.0000 C   0  0  2  0  0  0
   -2.8019   -4.6427    0.0000 C   0  0  2  0  0  0
    0.2302   -7.0636    0.0000 C   0  0
    1.1755   -7.3898    0.0000 O   0  0
   -0.9029   -8.0479    0.0000 O   0  0
   -0.6181   -9.5206    0.0000 C   0  0
   -1.2300    5.8900    0.0000 C   0  0
    8.2352    0.9101    0.0000 O   0  0
    8.2352   -0.5899    0.0000 S   0  0
    8.2352   -2.0899    0.0000 O   0  0
    6.9359   -1.3395    0.0000 O   0  0
    9.5344   -1.3395    0.0000 O   0  0
  1  2  1  0
  2  3  1  0
  3  4  1  1
  3  5  1  0
  6  5  1  6
  6  7  1  0
  7  8  1  0
  8  9  1  0
  9 10  1  0
 10 11  1  0
 11 12  2  0
 12 13  1  0
 13 14  1  0
 14 15  2  0
 15 16  1  0
 16 17  2  0
 17 18  1  0
 18 19  2  0
 19 11  1  0
 19 14  1  0
 12 20  1  0
 20 21  1  0
 21  6  1  0
 20 22  1  1
 22 23  2  0
 22 24  1  0
 24 25  1  0
 20 26  1  0
 26 27  2  0
 27 28  1  0
 28 29  2  0
 29 30  1  0
 30 31  2  0
 31 26  1  0
 31 32  1  0
 32 33  1  0
 29 34  1  0
 34 35  1  0
 35 36  2  0
 37 34  1  1
 37 38  1  0
 38 39  1  6
 38 40  1  0
 40 41  1  6
 41 42  1  0
 42 43  1  0
 42 44  2  0
 40 45  1  0
 45 46  1  1
 46 47  1  0
 45 48  1  0
 48 49  2  3
 49 50  1  0
 50 51  1  0
 51 52  1  0
 52 53  1  0
 54 53  1  6
 54 28  1  0
 54 37  1  0
 54 55  1  0
 55 45  1  0
 55 51  1  6
 38 56  1  0
 56 57  2  0
 56 58  1  0
 58 59  1  0
  8 60  1  0
 60  3  1  0
 61 62  1  0
 62 63  1  0
 62 64  2  0
 62 65  2  0
M  END
> <name>
NCI_AOD5_2014

> <id>
2653

> <plate>
NCI_V5_B

> <well>
C02

> <supplier_cmpd_name>
Vincristine sulfate

> <ctcr_id>
2259

> <supplier_cmpd_id>
67574

> <smiles>
CC[C@]1(O)C[C@H]2CN(CCc3c([nH]c4ccccc34)[C@@](C2)(C(=O)OC)c5cc6c(cc5OC)N(C=O)[C@H]7[C@](O)([C@H](OC(C)=O)[C@]8(CC)C=CCN9CC[C@]67[C@H]89)C(=O)OC)C1.O[S](O)(=O)=O

> <pd_targets>
{NR5A1,NR0B1,TUBB5,TUBA4A,MAPT,HIF1A,RORC,GAA,LMNA,TUBB2B,TUBA1A,SLCO1B3,TUBA1B,TUBA1C,TUBA3C,TUBA3E,TUBB,TUBB1,TUBB2A,TUBB3,TUBB4A,TUBB4B,TUBB6,TUBB8,HTT,SLCO1B1,ABCC1,ALDH1A1,KMT2A,MEN1,BLM,NPSR1,NF
O,PMP22,NS1,GMNN,MTOR}

> <pathway_gtopdb>
{"Transcription factor","Structural protein","Other cytosolic protein",Enzyme,"Other nuclear protein",Transporter,"Unclassified protein","Nuclear receptor",Hydrolase,"Electrochemical transporter","Pri
mary active transporter","Nuclear hormone receptor subfamily 5","Nuclear hormone receptor subfamily 0","Nuclear hormone receptor subfamily 1","SLC superfamily of solute carriers","ATP-binding cassette
","Nuclear hormone receptor subfamily 5 group A","Nuclear hormone receptor subfamily 0 group B","Nuclear hormone receptor subfamily 1 group F","SLC21/SLCO family of organic anion transporting polypept
ides","ABCC subfamily","Nuclear hormone receptor subfamily 5 group A member 1","Nuclear hormone receptor subfamily 0 group B member 1","Nuclear hormone receptor subfamily 1 group F member 3","Epigenet
ic regulator","Membrane receptor",Oxidoreductase,Reader,"Family A G protein-coupled receptor",Protease,Kinase,Bromodomain,"Peptide receptor (family A GPCR)","Cysteine protease","Protein Kinase","Short
 peptide receptor (family A GPCR)","Cysteine protease CA clan","Atypical protein kinase group","Neuropeptide receptor","Cysteine protease C1A family","Atypical protein kinase PIKK family","Atypical pr
otein kinase FRAP subfamily"}

> <pathway_chembl>
{Receptors,"Other protein targets",Enzymes,Transporters,"Nuclear hormone receptors",Tubulins,"3.2.1.- Glycosidases","SLC superfamily of solute carriers","ATP-binding cassette transporter family","5A. 
Fushi tarazu F1-like receptors","0B. DAX-like receptors","1F. Retinoic acid-related orphans","SLCO family of organic anion transporting polypeptides","ABCC subfamily","G protein-coupled receptors","Ki
nases (EC 2.7.x.x)","Neuropeptide S receptor",Atypical,"Phosphatidyl inositol 3' kinase-related kinases (PIKK) family","FRAP subfamily"}

> <pathway_reactome>
{"Metabolism of proteins","Gene expression (Transcription)","Cell Cycle","Neuronal System","Cellular responses to external stimuli",Disease,Metabolism,"Post-translational protein modification","RNA Po
lymerase II Transcription",Mitotic,"Transmission across Chemical Synapses","Cellular responses to stress","Diseases of metabolism","Metabolism of lipids",SUMOylation,"Generic Transcription Pathway","M
itotic G2-G2/M phases","Neurotransmitter receptors and postsynaptic signal transmission","Cellular response to hypoxia","Diseases of carbohydrate metabolism","M Phase","Metabolism of steroids","Fatty 
acid metabolism","SUMO E3 ligases SUMOylate target proteins","Nuclear Receptor transcription pathway","G2/M Transition","Activation of NMDA receptors and postsynaptic events","Oxygen-dependent proline
 hydroxylation of Hypoxia-inducible Factor Alpha","Transcriptional regulation by RUNX3","Glycogen storage diseases","Mitotic Metaphase and Anaphase","Bile acid and bile salt metabolism","Transcription
al Regulation by MECP2","Arachidonic acid metabolism","SUMOylation of intracellular receptors","Centrosome maturation","Post NMDA receptor activation events","RUNX3 Regulates Immune Response and Cell 
Migration","Glycogen storage disease type II (GAA)","Mitotic Anaphase","Recycling of bile acids and salts","Regulation of MECP2 expression and activity","Synthesis of Leukotrienes (LT) and Eoxins (EX)
","Loss of proteins required for interphase microtubule organization from the centrosome","Activation of AMPK downstream of NMDARs","Nuclear Envelope (NE) Reassembly","Loss of Nlp from mitotic centros
omes","Initiation of Nuclear Envelope (NE) Reformation","DNA Repair","Developmental Biology","Biological oxidations","DNA Double-Strand Break Repair","Infectious disease","Nervous system development",
"Phase I - Functionalization of compounds","Homology Directed Repair","Leishmania infection","EGR2 and SOX10-mediated initiation of Schwann cell myelination","Mitotic G1 phase and G1/S transition","Et
hanol oxidation","HDR through Homologous Recombination (HRR) or Single Strand Annealing (SSA)","Leishmania parasite growth and survival","G1/S Transition","Transcriptional Regulation by TP53","HDR thr
ough Homologous Recombination (HRR)","Anti-inflammatory response favouring Leishmania parasite infection","Activation of the pre-replicative complex","Regulation of TP53 Activity","Homologous DNA Pair
ing and Strand Exchange","ADORA2B mediated anti-inflammatory cytokines production","Regulation of TP53 Expression and Degradation","Presynaptic phase of homologous DNA pairing and strand exchange","Re
gulation of TP53 Degradation"}

> <broad_targets>
{TUBA4A,TUBB}

> <broad_moa>
{"tubulin polymerization inhibitor"}

> <synonyms>
{"Vincristine sulfate",2068-78-2,2068782,"Vincristine sulphate",Kyocristine,Onkovin,Vincrisul,"VCR sulfate","NSC 67574","Leurocristine sulfate","2068-78-2 (sulfate)","2068782 (sulfate)","Lilly 37231",
"Vincaleukoblastine, 22-oxo-, sulfate (1:1)","Vincaleukoblastine, 22oxo, sulfate (1:1)",NSC67574,"Leurocristine sulfat",67574,"NSC 67574
NSC 67574
NSC 67574"}

> <pdid>
PD003310

> <targets>
{}

> <classes>
{"Microtubule inhibitor"}

> <pubchem_cids>
{249332}

$$$$
NCI_AOD5_2014
  SciTegic11012412592D

 14 14  0  0  0  0            999 V2000
   -1.3359   -5.2323    0.0000 Cl  0  0
   -0.0372   -4.4818    0.0000 C   0  0
   -0.0368   -2.9810    0.0000 C   0  0
    1.2626   -2.2300    0.0000 N   0  0
    2.5609   -2.9829    0.0000 C   0  0
    2.5589   -4.4838    0.0000 C   0  0
    3.8565   -5.2363    0.0000 Cl  0  0
    1.2990   -0.7500    0.0000 P   0  0
    2.5793    0.0316    0.0000 O   0  0
    1.2990    0.7500    0.0000 N   0  0
    0.0000    1.5000    0.0000 C   0  0
   -1.2990    0.7500    0.0000 C   0  0
   -1.2990   -0.7500    0.0000 C   0  0
    0.0000   -1.5000    0.0000 O   0  0
  1  2  1  0
  2  3  1  0
  3  4  1  0
  4  5  1  0
  5  6  1  0
  6  7  1  0
  4  8  1  0
  8  9  2  0
  8 10  1  0
 10 11  1  0
 11 12  1  0
 12 13  1  0
 13 14  1  0
 14  8  1  0
M  END
> <name>
NCI_AOD5_2014

> <id>
2654

> <plate>
NCI_V5_B

> <well>
C03

> <supplier_cmpd_name>
Cyclophosphamide

> <ctcr_id>
2155

> <supplier_cmpd_id>
26271

> <smiles>
ClCCN(CCCl)[P]1(=O)NCCCO1

> <pd_targets>
{NPSR1,ALOX15,KDM4E}

> <pathway_gtopdb>
{"Membrane receptor",Enzyme,"Epigenetic regulator","Family A G protein-coupled receptor",Oxidoreductase,Eraser,"Peptide receptor (family A GPCR)","Lysine demethylase","Short peptide receptor (family A
 GPCR)","Jumonji domain-containing","Neuropeptide receptor"}

> <pathway_chembl>
{Receptors,Enzymes,"G protein-coupled receptors","Eicosanoid turnover","Chromatin modifying enzymes","Neuropeptide S receptor",Lipoxygenases,"1.14.11.- Histone demethylases"}

> <pathway_reactome>
{Disease,Metabolism,"Infectious disease","Metabolism of lipids","Leishmania infection","Biosynthesis of specialized proresolving mediators (SPMs)","Leishmania parasite growth and survival","Biosynthes
is of DPA-derived SPMs","Anti-inflammatory response favouring Leishmania parasite infection","Biosynthesis of DPAn-3 SPMs","ADORA2B mediated anti-inflammatory cytokines production","Biosynthesis of DP
An-3-derived protectins and resolvins"}

> <broad_targets>
{CYP2A6,CYP2B6,CYP2C18,CYP2C19,CYP2C8,CYP2C9,CYP2D6,CYP3A4,CYP3A5,CYP3A7}

> <broad_moa>
{"DNA alkylating agent"}

> <synonyms>
{cyclophosphamide,50-18-0,50180,Cyclophosphamid,Cytoxan,Cyclophosphane,Neosar,Cytophosphan,Procytox,Clafen,Endoxan,Cyclophosphan,Cyclostin,Sendoxan,Cyclophosphamidum,Cytophosphane,Claphene,Endoxana,En
doxanal,Genoxal,Endoxan-Asta,EndoxanAsta,"Endoxan R",Zyklophos,T0707,26271,NSC26271,Prestw-1481,"NSC 26271
NSC 26271","Cyclophosphamide monohydrate",Cyclophosphamide}

> <pdid>
PD002782

> <targets>
{}

> <classes>
{"Alkylating agent"}

> <pubchem_cids>
{2907}

$$$$
NCI_AOD5_2014
  SciTegic11012412592D

 16 16  0  0  0  0            999 V2000
    3.8912   -5.2570    0.0000 Br  0  0
    3.8933   -3.7570    0.0000 C   0  0
    2.5951   -3.0039    0.0000 C   0  0
    2.5973   -1.5031    0.0000 C   0  0
    3.8976   -0.7553    0.0000 O   0  0
    1.2990   -0.7500    0.0000 N   0  0
    1.2990    0.7500    0.0000 C   0  0
    0.0000    1.5000    0.0000 C   0  0
   -1.2990    0.7500    0.0000 N   0  0
   -1.2990   -0.7500    0.0000 C   0  0
    0.0000   -1.5000    0.0000 C   0  0
   -2.6003    1.4977    0.0000 C   0  0
   -2.6030    2.9977    0.0000 O   0  0
   -3.8990    0.7455    0.0000 C   0  0
   -5.2003    1.4932    0.0000 C   0  0
   -6.4983    0.7413    0.0000 Br  0  0
  1  2  1  0
  2  3  1  0
  3  4  1  0
  4  5  2  0
  4  6  1  0
  6  7  1  0
  7  8  1  0
  8  9  1  0
  9 10  1  0
 10 11  1  0
 11  6  1  0
  9 12  1  0
 12 13  2  0
 12 14  1  0
 14 15  1  0
 15 16  1  0
M  END
> <name>
NCI_AOD5_2014

> <id>
2655

> <plate>
NCI_V5_B

> <well>
C04

> <supplier_cmpd_name>
Pipobroman

> <ctcr_id>
668

> <supplier_cmpd_id>
25154

> <smiles>
BrCCC(=O)N1CCN(CC1)C(=O)CCBr

> <pd_targets>
{HSD17B10,KDM4E,LMNA,HPGD,ALDH1A1,KMT2A,MEN1,TDP1,CYP3A4}

> <pathway_gtopdb>
{Enzyme,"Epigenetic regulator","Other nuclear protein",Oxidoreductase,Eraser,Protease,Reader,Hydrolase,"Cytochrome P450","Lysine demethylase","Cysteine protease",Bromodomain,"Cytochrome P450 family 3"
,"Jumonji domain-containing","Cysteine protease CA clan","Cytochrome P450 family 3A","Cysteine protease C1A family","Cytochrome P450 3A4"}

> <pathway_chembl>
{Enzymes,"Chromatin modifying enzymes","Eicosanoid turnover","Cytochrome P450","1.14.11.- Histone demethylases","Prostaglandin synthases","CYP3 family"}

> <pathway_reactome>
{Metabolism,"Cell Cycle","DNA Repair","Metabolism of amino acids and derivatives",Mitotic,"Metabolism of lipids","Biological oxidations","DNA Double-Strand Break Repair","Branched-chain amino acid cat
abolism","M Phase","Biosynthesis of specialized proresolving mediators (SPMs)","Phase I - Functionalization of compounds","Nonhomologous End-Joining (NHEJ)","Mitotic Metaphase and Anaphase","Biosynthe
sis of DHA-derived SPMs","Ethanol oxidation","Mitotic Anaphase","Biosynthesis of D-series resolvins","Biosynthesis of maresins","Nuclear Envelope (NE) Reassembly","Biosynthesis of maresin-like SPMs","
Initiation of Nuclear Envelope (NE) Reformation"}

> <broad_targets>
{}

> <broad_moa>
{"DNA alkylating agent"}

> <synonyms>
{pipobroman,54-91-1,54911,Vercyte,Amedel,"1,1'-(Piperazine-1,4-diyl)bis(3-bromopropan-1-one)","1,1'(Piperazine1,4diyl)bis(3bromopropan1one)",Pipobromanum,"1,4-Bis(3-bromopropionyl)piperazine","1,4Bis(
3bromopropionyl)piperazine",A-8103,A8103,"Piperazine, 1,4-bis(3-bromo-1-oxopropyl)-","Piperazine, 1,4bis(3bromo1oxopropyl)","N,N-Bis-(3-bromopropionyl)-piperazine","N,NBis(3bromopropionyl)piperazine",
NSC-25154,NSC25154,"A 18",T4570,25154,1503393,"NSC 25154",Pipobroman,PIPOBROMAN}

> <pdid>
PD000989

> <targets>
{DNA Alkylator/Crosslinker}

> <classes>
{antineoplastic,alkylating agent,Alkylating agent,Cell Cycle/DNA Damage}

> <pubchem_cids>
{4842}

$$$$
NCI_AOD5_2014
  SciTegic11012412592D

 18 17  0  0  1  0            999 V2000
    2.6000   -1.5000    0.0000 C   0  0
    2.6000    0.0000    0.0000 N   0  0
    1.3000    0.7500    0.0000 N   0  0
    0.0007    0.0004    0.0000 O   0  0
    3.9000    0.7500    0.0000 C   0  0
    3.9000    2.2500    0.0000 O   0  0
    5.2000    0.0000    0.0000 N   0  0
    6.5000    0.7500    0.0000 C   0  0  1  0  0  0
    6.4969    2.2508    0.0000 C   0  0
    5.1968    2.9990    0.0000 O   0  0
    7.7999    0.0000    0.0000 C   0  0  1  0  0  0
    7.7999   -1.5000    0.0000 O   0  0
    9.0999    0.7500    0.0000 C   0  0  2  0  0  0
    9.0999    2.2500    0.0000 O   0  0
   10.3999    0.0000    0.0000 C   0  0  2  0  0  0
   10.3999   -1.5000    0.0000 O   0  0
   11.6999    0.7500    0.0000 C   0  0
   12.9992    0.0004    0.0000 O   0  0
  1  2  1  0
  2  3  1  0
  3  4  2  0
  2  5  1  0
  5  6  2  0
  5  7  1  0
  8  7  1  1
  8  9  1  0
  9 10  2  0
  8 11  1  0
 11 12  1  6
 11 13  1  0
 13 14  1  6
 13 15  1  0
 15 16  1  1
 15 17  1  0
 17 18  1  0
M  END
> <name>
NCI_AOD5_2014

> <id>
2656

> <plate>
NCI_V5_B

> <well>
C05

> <supplier_cmpd_name>
Streptozocin

> <ctcr_id>
6198

> <supplier_cmpd_id>
85998

> <smiles>
CN(N=O)C(=O)N[C@@H](C=O)[C@@H](O)[C@H](O)[C@H](O)CO

> <pd_targets>
.

> <pathway_gtopdb>
.

> <pathway_chembl>
.

> <pathway_reactome>
.

> <broad_targets>
.

> <broad_moa>
.

> <synonyms>
{"D-Glucose, 2-deoxy-2-(((methylnitrosoamino)carbonyl)amino)-","DGlucose, 2deoxy2(((methylnitrosoamino)carbonyl)amino)","NSC 85998",UNII-5W494URQ81,UNII5W494URQ81,"U 9889",5W494URQ81,"D-Glucose, 2-deo
xy-2-(3-methyl-3-nitrosoureido)-","DGlucose, 2deoxy2(3methyl3nitrosoureido)",Streptozoticin,U-9889,U9889,D-Glucopyranose,DGlucopyranose,2-deoxy-2-(((methylnitrosoamino)carbonyl)a,2deoxy2(((methylnitro
soamino)carbonyl)a,85998,NSC85998,"NSC 85998
NSC 85998",Streptozocin}

> <pdid>
PD004123

> <targets>
{}

> <classes>
{"Alkylating agent"}

> <pubchem_cids>
{23615975}

$$$$
NCI_AOD5_2014
  SciTegic11012412592D

 11 12  0  0  0  0            999 V2000
    2.5981   -1.5000    0.0000 N   0  0
    1.2990   -0.7500    0.0000 C   0  0
    1.2990    0.7500    0.0000 N   0  0
    0.0000    1.5000    0.0000 C   0  0
    0.0000    3.0000    0.0000 S   0  0
   -1.2990    0.7500    0.0000 C   0  0
   -2.7248    1.2135    0.0000 N   0  0
   -3.6065    0.0000    0.0000 C   0  0
   -2.7248   -1.2135    0.0000 N   0  0
   -1.2990   -0.7500    0.0000 C   0  0
    0.0000   -1.5000    0.0000 N   0  0
  1  2  1  0
  2  3  2  0
  3  4  1  0
  4  5  1  0
  4  6  2  0
  6  7  1  0
  7  8  2  0
  8  9  1  0
  9 10  1  0
 10  6  1  0
 10 11  2  0
 11  2  1  0
M  END
> <name>
NCI_AOD5_2014

> <id>
2657

> <plate>
NCI_V5_B

> <well>
C06

> <supplier_cmpd_name>
Thioguanine

> <ctcr_id>
4461

> <supplier_cmpd_id>
752

> <smiles>
Nc1nc(S)c2nc[nH]c2n1

> <pd_targets>
{HPGD,HBB,ALDH1A1,TP53,ALD,FOLK,MAPK3,XDH,ALOX15,PTGS1,ADORA3,PAX8,IMPDH1,IMPDH2}

> <pathway_gtopdb>
{Enzyme,"Secreted protein","Transcription factor","Membrane receptor","Unclassified protein",Oxidoreductase,Transferase,Kinase,"Family A G protein-coupled receptor","Protein Kinase","Small molecule re
ceptor (family A GPCR)","CMGC protein kinase group","Nucleotide-like receptor (family A GPCR)","CMGC protein kinase MAPK family","Adenosine receptor","CMGC protein kinase ERK1"}

> <pathway_chembl>
{Enzymes,Receptors,"Eicosanoid turnover","Kinases (EC 2.7.x.x)","1.-.-.- Oxidoreductases","G protein-coupled receptors","Prostaglandin synthases","CMGC: Containing CDK",MAPK,GSK3,"CLK families",Lipoxy
genases,Cyclooxygenase,"Adenosine receptors","Mitogen-activated protein kinases (MAP kinases)","ERK subfamily"}

> <pathway_reactome>
{Metabolism,"Immune System","Cell Cycle","Signal Transduction",Disease,"Metabolism of lipids","Innate Immune System","Biological oxidations","Cell Cycle Checkpoints","Metabolism of nucleotides","Signa
ling by GPCR","Infectious disease","Biosynthesis of specialized proresolving mediators (SPMs)","Neutrophil degranulation","Phase I - Functionalization of compounds","G1/S DNA Damage Checkpoints","Toll
-like Receptor Cascades","Nucleobase catabolism","Fatty acid metabolism","GPCR ligand binding","SARS-CoV Infections","Biosynthesis of DHA-derived SPMs","Ethanol oxidation","p53-Dependent G1/S DNA dama
ge checkpoint","Toll Like Receptor 5 (TLR5) Cascade","Purine catabolism","Biosynthesis of DPA-derived SPMs","Arachidonic acid metabolism","Class A/1 (Rhodopsin-like receptors)","Potential therapeutics
 for SARS","Biosynthesis of D-series resolvins","p53-Dependent G1 DNA Damage Response","MyD88 cascade initiated on plasma membrane","Biosynthesis of DPAn-3 SPMs","Synthesis of Prostaglandins (PG) and 
Thromboxanes (TX)","Nucleotide-like (purinergic) receptors","Stabilization of p53","MAP kinase activation","Biosynthesis of DPAn-3-derived protectins and resolvins","Adenosine P1 receptors","Autodegra
dation of the E3 ubiquitin ligase COP1","MAPK targets/ Nuclear events mediated by MAP kinases","ERK/MAPK targets","ERKs are inactivated"}

> <broad_targets>
.

> <broad_moa>
.

> <synonyms>
{6-Thioguanine,6Thioguanine,thioguanine,154-42-7,154427,Tioguanine,2-Amino-6-mercaptopurine,2Amino6mercaptopurine,6-Mercaptoguanine,6Mercaptoguanine,Tioguanin,Tabloid,Lanvis,2-Amino-6-purinethiol,2Ami
no6purinethiol,"2-Amino 6MP","2Amino 6MP",2-Aminopurin-6-thiol,2Aminopurin6thiol,2-Aminopurine-6-thiol,2Aminopurine6thiol,2-Aminopurine-6(1H)-thione,2Aminopurine6(1H)thione,"Wellcome U3B",6-Mercap,6Me
rcap,752,1500573,"NSC 752",Thioguanine,THIOGUANINE}

> <pdid>
PD001469

> <targets>
{Apoptosis,Autophagy,Deubiquitinase,DNA Methyltransferase,Endogenous Metabolite,SARS-CoV}

> <classes>
{antineoplastic,Anti-metabolite,purine antimetabolite,Anti-infection,Apoptosis,Autophagy,Cell Cycle/DNA Damage,Epigenetics,Metabolic Enzyme/Protease}

> <pubchem_cids>
{2723601}

$$$$
NCI_AOD5_2014
  SciTegic11012412592D

 33 36  0  0  0  0            999 V2000
    2.5981   -1.5000    0.0000 C   0  0
    1.2990   -0.7500    0.0000 C   0  0
    1.2990    0.7500    0.0000 N   0  0
    0.0000    1.5000    0.0000 C   0  0
   -0.0031    3.0008    0.0000 N   0  0
   -1.3039    3.7494    0.0000 C   0  0
   -1.4470    5.2297    0.0000 S   0  0
   -2.9153    5.5365    0.0000 C   0  0
   -3.6607    4.2349    0.0000 C   0  0
   -2.6532    3.1236    0.0000 N   0  0
   -3.5322    6.9018    0.0000 C   0  0
   -2.6569    8.1199    0.0000 O   0  0
   -5.0256    7.0513    0.0000 N   0  0
   -5.6437    8.4190    0.0000 C   0  0
   -7.1360    8.5706    0.0000 C   0  0
   -8.0134    7.3540    0.0000 C   0  0
   -7.7509    9.9388    0.0000 C   0  0
   -6.8735   11.1554    0.0000 C   0  0
   -5.3812   11.0039    0.0000 C   0  0
   -4.7663    9.6357    0.0000 C   0  0
   -3.2739    9.4842    0.0000 Cl  0  0
   -1.2990    0.7500    0.0000 C   0  0
   -1.2990   -0.7500    0.0000 C   0  0
    0.0000   -1.5000    0.0000 N   0  0
   -2.5987   -1.5004    0.0000 N   0  0
   -3.8991   -0.7525    0.0000 C   0  0
   -5.1969   -1.5046    0.0000 C   0  0
   -5.1945   -3.0046    0.0000 N   0  0
   -6.4915   -3.7597    0.0000 C   0  0
   -6.4870   -5.2605    0.0000 C   0  0
   -7.7833   -6.0153    0.0000 O   0  0
   -3.8943   -3.7525    0.0000 C   0  0
   -2.5964   -3.0004    0.0000 C   0  0
  1  2  1  0
  2  3  2  0
  3  4  1  0
  4  5  1  0
  5  6  1  0
  6  7  1  0
  7  8  1  0
  8  9  2  0
  9 10  1  0
 10  6  2  0
  8 11  1  0
 11 12  2  0
 11 13  1  0
 13 14  1  0
 14 15  2  0
 15 16  1  0
 15 17  1  0
 17 18  2  0
 18 19  1  0
 19 20  2  0
 20 14  1  0
 20 21  1  0
  4 22  2  0
 22 23  1  0
 23 24  2  0
 24  2  1  0
 23 25  1  0
 25 26  1  0
 26 27  1  0
 27 28  1  0
 28 29  1  0
 29 30  1  0
 30 31  1  0
 28 32  1  0
 32 33  1  0
 33 25  1  0
M  END
> <name>
NCI_AOD5_2014

> <id>
2658

> <plate>
NCI_V5_B

> <well>
C07

> <supplier_cmpd_name>
Dasatinib

> <ctcr_id>
6468

> <supplier_cmpd_id>
732517

> <smiles>
Cc1nc(Nc2sc(cn2)C(=O)Nc3c(C)cccc3Cl)cc(n1)N4CCN(CCO)CC4

> <pd_targets>
{EPHB6,ERBB4,LCK,SRC,ABL1,BCR,BTK,EPHA2,CSK,CSNK1E,EPHB1,EPHB4,TUBA1A,RAF1,RET,RIPK2,PDGFRA,MAP4K3,BLK,MAP4K4,BMX,MAP4K2,TESK1,EPHA1,EGFR,ERBB2,FGFR1,KIT,TYK2,BMPR1B,PLK4,LIMK1,LIMK2,MAP2K1,SIK2,ACVR2
A,GAK,DDR2,IRAK4,ACVRL1,COQ8A,TAOK2,TAOK3,CDPK1,DYRK3,MAPK14,MAP4K1,PDGFRB,SLK,HTR2A,BRAF,FGR,FGFR2,NLK,FLT3,KCNH2,NORA,EPHB3,WEE2,JAK2,STK4,STK10,DDR1,STK36,EPHA8,FLT1,SBK1,TNIK,TXK,EPHB2,MINK1,MAPK1
1,ACVR1B,ACVR1,MAP4K5,TEC,DMPK,REP,KDR,FRK,WEE1,MAP3K20,TGFBR1,PTK6,SIK3,YES1,MAP3K19,MAP3K7,NEK11,MAPK12,MAPK13,HCK,JAK3,CDC42BPA,AURKA,FGFR3,MAP3K3,CYP3A4,STK26,ABL2,SIK1,SRMS,SYK,EIF2AK4,MAP3K13,PI
K3CA,PKMYT1,CSF1R,EPHA4,STK25,LYN,MAP2K2,CDC42BPB,TGFBR2,CDC42BPG,ACVR2B,EPHA6,MAP2K5,TNK2,PIK3CD,MTOR,MAP3K4,ULK3,ERBB3,MYLK2,FYN,TNNI3K,TAOK1,EPHA5,NEK2,AXL,VRK2,HTT,AURKB,EPHA3,PKN2,FES,STK35,MAP3K
10,BMPR1A,MAP3K2,ITK,ABCB11,MYT1,CACNA1C,CACNA1D,CACNA1F,CACNA1S,ABCC4,SCN5A,STAT5B}

> <pathway_gtopdb>
{"Unclassified protein",Enzyme,"Structural protein","Membrane receptor","Ion channel",Transporter,"Transcription factor",Kinase,"Family A G protein-coupled receptor","Voltage-gated ion channel","Cytoc
hrome P450",Transferase,"Primary active transporter","Protein Kinase","Small molecule receptor (family A GPCR)","Potassium channels","Cytochrome P450 family 3","ATP-binding cassette","Voltage-gated ca
lcium channel","Voltage-gated sodium channel","TK protein kinase group","Atypical protein kinase group","CK1 protein kinase group","TKL protein kinase group","STE protein kinase group","Other protein 
kinase group","CAMK protein kinase group","CMGC protein kinase group","Monoamine receptor","Voltage-gated potassium channel","AGC protein kinase group","Cytochrome P450 family 3A","ABCB subfamily","AB
CC subfamily","Tyrosine protein kinase EGFR family","Tyrosine protein kinase Src family","Atypical protein kinase BCR family","Tyrosine protein kinase Abl family","Tyrosine protein kinase Tec family",
"Tyrosine protein kinase Eph family","Tyrosine protein kinase Csk family","CK1 protein kinase CK1 family","TKL protein kinase RAF family","Tyrosine protein kinase Ret family","TKL protein kinase RIPK 
family","Tyrosine protein kinase PDGFR family","STE protein kinase STE20 family","TKL protein kinase LISK family","Tyrosine protein kinase FGFR family","Tyrosine protein kinase JakA family","TKL prote
in kinase STKR family","Other protein kinase PLK family","STE protein kinase STE7 family","CAMK protein kinase CAMK1 family","Other protein kinase NAK family","Tyrosine protein kinase DDR family","TKL
 protein kinase IRAK family","CMGC protein kinase DYRK family","CMGC protein kinase MAPK family","Serotonin receptor","Other protein kinase WEE family","Other protein kinase ULK family","Tyrosine prot
ein kinase VEGFR family","Other protein kinase NKF1 family","AGC protein kinase DMPK family","TKL protein kinase MLK family","STE protein kinase STE11 family","Other protein kinase NEK family","Other 
protein kinase AUR family","Cytochrome P450 3A4","Tyrosine protein kinase Syk family","Other protein kinase PEK family","Tyrosine protein kinase Ack family","Atypical protein kinase PIKK family","CAMK
 protein kinase MLCK family","Tyrosine protein kinase Axl family","AGC protein kinase PKN family","Tyrosine protein kinase Fer family","Other protein kinase NKF4 family","STE protein kinase KHS subfam
ily","STE protein kinase MSN subfamily","TKL protein kinase TESK subfamily","TKL protein kinase STKR Type 1 subfamily","TKL protein kinase LIMK subfamily","CAMK protein kinase QIK subfamily","TKL prot
ein kinase STKR Type 2 subfamily","STE protein kinase TAO subfamily","CMGC protein kinase Dyrk2 subfamily","CMGC protein kinase p38 subfamily","STE protein kinase SLK subfamily","CMGC protein kinase n
mo subfamily","Other protein kinase WEE1","STE protein kinase MST subfamily","TKL protein kinase STKR1","AGC protein kinase GEK subfamily","TKL protein kinase MLK subfamily","TKL protein kinase TAK1 s
ubfamily","Other protein kinase Nek11","STE protein kinase MEKK2","STE protein kinase YSK subfamily","Tyrosine protein kinase Srm","Other protein kinase GCN2 subfamily","TKL protein kinase LZK subfami
ly","Atypical protein kinase FRAP subfamily","Tyrosine protein kinase SrcA","TKL protein kinase HH498 subfamily"}

> <pathway_chembl>
{Receptors,Enzymes,"Other protein targets","Ion channels",Transporters,"Catalytic receptors","Kinases (EC 2.7.x.x)",Tubulins,"G protein-coupled receptors","Voltage-gated ion channels","Anti-infective 
targets","Cytochrome P450","ATP-binding cassette transporter family","Receptor kinases","CK1: Casein kinase 1","STE: Homologs of yeast Sterile 7","Sterile 11","Sterile 20 kinases","CAMK: Calcium/calmo
dulin-dependent protein kinases",Atypical,"CMGC: Containing CDK",MAPK,GSK3,"CLK families","5-Hydroxytryptamine receptors","Potassium channels","AGC: Containing PKA",PKG,"PKC families","Viral protein t
argets","CYP3 family","Lipid modifying kinases","ABCB subfamily","ABCC subfamily","Voltage-gated sodium channels","TK: Tyrosine kinase","Casein kinase 1 (CK1) family","TKL: Tyrosine kinase-like","STE2
0 family","Other protein kinases","STE7 family","CAMK-like (CAMKL) family","ABC1 family","Dual-specificity tyrosine-(Y)-phosphorylation regulated kinase (DYRK) family","Mitogen-activated protein kinas
es (MAP kinases)","Voltage-gated potassium channels","DMPK family","Coronavirus (CoV) proteins","STE11 family",Phosphatidylinositol-4,"5-bisphosphate 3-kinase family","Phosphatidyl inositol 3' kinase-
related kinases (PIKK) family","Myosin Light Chain Kinase (MLCK) family","Vaccina related kinase (VRK) family","Protein kinase N (PKN) family","Receptor tyrosine kinases (RTKs)","Non-receptor tyrosine
 kinases (nRTKs)","RAF family","Receptor interacting protein kinase (RIPK) family","KHS subfamily","MSN subfamily","LIM domain kinase (LISK) family","Receptor serine/threonine kinase (RSTK) family","P
olo-like kinase (PLK) family","QIK subfamily","Numb-associated kinase (NAK) family","Interleukin-1 receptor-associated kinase (IRAK) family","ABC1-B subfamily","TAO subfamily","Dyrk2 subfamily","p38 s
ubfamily","SLK subfamily","nmo subfamily","WEE family","MST subfamily","Unc-51-like kinase (ULK) family","NKF1 family","GEK subfamily","Mixed Lineage Kinase (MLK) family","STE20 subfamily","NIMA (neve
r in mitosis gene a)- related kinase (NEK) family","Aurora kinase (Aur) family","YSK subfamily","PEK family","FRAP subfamily","NKF4 family","Type XIII RTKs: Ephrin receptor family","Type I RTKs: ErbB 
(epidermal growth factor) receptor family","Src family","Abl family","Tec family","Csk family","Type XIV RTKs: RET","Type III RTKs: PDGFR",CSFR,Kit,"FLT3 receptor family","TESK subfamily","Type V RTKs
: FGF (fibroblast growth factor) receptor family","Janus kinase (JakA) family","Type I receptor serine/threonine kinases","LIMK subfamily","Type II receptor serine/threonine kinases","Type XVI RTKs: D
DR (collagen receptor) family","Type IV RTKs: VEGF (vascular endothelial growth factor) receptor family","MLK subfamily","TAK1 subfamily","Syk family","GCN2 subfamily","LZK subfamily","Ack family","HH
498 subfamily","Type XI RTKs: TAM (TYRO3-","AXL- and MER-TK) receptor family","Fer family"}

> <pathway_reactome>
{"Developmental Biology","Neuronal System",Disease,"Signal Transduction","Cell Cycle","Immune System","Gene expression (Transcription)","Cellular responses to external stimuli",Metabolism,"Cell-Cell c
ommunication","Vesicle-mediated transport","Extracellular matrix organization","Muscle contraction","Programmed Cell Death","Circadian Clock",Hemostasis,"Nervous system development","Transmission acro
ss Chemical Synapses","Infectious disease","Signaling by Receptor Tyrosine Kinases","Diseases of signal transduction by growth factor receptors and second messengers",Mitotic,"MAPK family signaling ca
scades","Innate Immune System","RNA Polymerase II Transcription","Cellular responses to stress","Metabolism of lipids","Cell junction organization","Signaling by GPCR","Cytokine Signaling in Immune sy
stem","Signaling by TGFB family members","Signaling by NODAL","Membrane Trafficking","Non-integrin membrane-ECM interactions","Intracellular signaling by second messengers","Signaling by WNT","Cardiac
 conduction","Signaling by Hippo","Cell Cycle Checkpoints",Apoptosis,"Signaling by Non-Receptor Tyrosine Kinases","Signaling by Hedgehog","Signaling by Rho GTPases","Adaptive Immune System","Platelet 
activation","signaling and aggregation","Axon guidance","Neurotransmitter receptors and postsynaptic signal transmission","HIV Infection","Signaling by NTRKs","Leishmania infection","Oncogenic MAPK si
gnaling","Mitotic G2-G2/M phases","MAPK1/MAPK3 signaling","Toll-like Receptor Cascades","Signaling by PDGFR in disease","Generic Transcription Pathway","Cellular Senescence","Phospholipid metabolism",
"Cell-extracellular matrix interactions","GPCR downstream signalling","Signaling by FGFR in disease","Signaling by KIT in disease","Interferon Signaling","Signaling by BMP","Regulation of signaling by
 NODAL","trans-Golgi Network Vesicle Budding","PIP3 activates AKT signaling","GPCR ligand binding","Beta-catenin independent WNT signaling","Signaling by Insulin receptor","Phase 3 - rapid repolarisat
ion","Mitotic G1 phase and G1/S transition","Neutrophil degranulation","Signaling by VEGF","Fc epsilon receptor (FCERI) signaling","Signaling by Interleukins","Ion homeostasis","SARS-CoV Infections","
G2/M Checkpoints","Signaling by TGF-beta Receptor Complex in Cancer","Biosynthesis of specialized proresolving mediators (SPMs)","Apoptotic execution phase","Signaling by PTK6","Response of EIF2AK4 (G
CN2) to amino acid deficiency","Hedgehog 'on' state","M Phase","Regulation of mitotic cell cycle","RHO GTPase Effectors","TCR signaling","Metabolism of steroids","Response to elevated platelet cytosol
ic Ca2+","EPH-Ephrin signaling","Activation of NMDA receptors and postsynaptic events","Host Interactions of HIV factors","Signaling by NTRK1 (TRKA)","Parasite infection","Signaling by RAS mutants","G
2/M Transition","RAF/MAP kinase cascade","RET signaling","Toll Like Receptor 5 (TLR5) Cascade","Drug resistance of PDGFR mutants","Transcriptional regulation by RUNX1","Oxidative Stress Induced Senesc
ence","PI Metabolism","Regulation of cytoskeletal remodeling and cell spreading by IPP complex components","G alpha (q) signalling events","Semaphorin interactions","Signaling by FGFR1 in disease","Dr
ug resistance of KIT mutants","Interferon alpha/beta signaling","Golgi Associated Vesicle Biogenesis","Toll Like Receptor 2 (TLR2) Cascade","Negative regulation of the PI3K/AKT network","Class A/1 (Rh
odopsin-like receptors)","Leishmania parasite growth and survival","Signaling by FGFR2 in disease","Ca2+ pathway","Insulin receptor signalling cascade","G1 Phase","VEGF ligand-receptor interactions","
FCERI mediated Ca+2 mobilization",Interleukin-3,"Interleukin-5 and GM-CSF signaling","SARS-CoV-1 Infection","VEGFA-VEGFR2 Pathway","PTEN Regulation","G2/M DNA damage checkpoint","Loss of Function of S
MAD2/3 in Cancer","Toll Like Receptor 4 (TLR4) Cascade","Interleukin-2 family signaling","Transcriptional Regulation by TP53","Signaling by FGFR3 in disease","Interleukin-1 family signaling","Biosynth
esis of DHA-derived SPMs","Apoptotic cleavage of cellular proteins","Signaling by ROBO receptors","PTK6 Down-Regulation","Transcriptional Regulation by VENTX","Mitotic Metaphase and Anaphase","APC/C-m
ediated degradation of cell cycle proteins","Transcriptional Regulation by MECP2","RHO GTPases activate PKNs","Generation of second messenger molecules","Bile acid and bile salt metabolism","Platelet 
degranulation","L1CAM interactions","EPHB-mediated forward signaling","Post NMDA receptor activation events","The role of Nef in HIV-1 replication and disease pathogenesis","Signalling to ERKs","Leish
mania phagocytosis","EPHA-mediated growth cone collapse","Signaling downstream of RAS mutants","Centrosome maturation","Negative regulation of MAPK pathway","MyD88 cascade initiated on plasma membrane
","Imatinib-resistant PDGFR mutants","RUNX1 regulates transcription of genes involved in BCR signaling","Synthesis of PIPs at the plasma membrane","Gastrin-CREB signalling pathway via PKC and MAPK","S
ema4D in semaphorin signaling","FGFR1 mutant receptor activation","Dasatinib-resistant KIT mutants","Regulation of IFNA signaling","Toll Like Receptor TLR6:TLR2 Cascade",PI5P,"PP2A and IER3 Regulate P
I3K/AKT Signaling","Amine ligand-binding receptors","Anti-inflammatory response favouring Leishmania parasite infection","FGFR2 mutant receptor activation","IRS-mediated signalling","Cyclin D associat
ed events in G1","VEGF binds to VEGFR leading to receptor dimerization","SARS-CoV-1 Genome Replication and Transcription","VEGFR2 mediated cell proliferation","Regulation of PTEN stability and activit
y","Chk1/Chk2(Cds1) mediated inactivation of Cyclin B:Cdk1 complex","SMAD2/3 Phosphorylation Motif Mutants in Cancer","MyD88-independent TLR4 cascade","Interleukin-15 signaling","Regulation of TP53 Ac
tivity","Signaling by FGFR3 point mutants in cancer","Interleukin-1 signaling","Biosynthesis of maresins","Role of ABL in ROBO-SLIT signaling","Cyclin A/B1/B2 associated events during G2/M transition"
,"Signalling to ERK5","Interleukin receptor SHC signaling","Mitotic Anaphase","Activation of APC/C and APC/C:Cdc20 mediated degradation of mitotic proteins","Regulation of MECP2 expression and activit
y","CRMPs in Sema3A signaling","Synthesis of bile acids and bile salts","Interaction between L1 and Ankyrins","Long-term potentiation","Nef-mediates down modulation of cell surface receptors by recrui
ting them to clathrin adapters","Signalling to RAS","FCGR3A-mediated phagocytosis","Loss of proteins required for interphase microtubule organization from the centrosome","Negative feedback regulation
 of MAPK pathway","MAP kinase activation","EGFR Transactivation by Gastrin","Sema4D induced cell migration and growth-cone collapse","Signaling by activated point mutants of FGFR1","Prolonged ERK acti
vation events","MyD88:MAL(TIRAP) cascade initiated on plasma membrane","Serotonin receptors","FCGR3A-mediated IL10 synthesis","Activated point mutants of FGFR2","PI3K Cascade","Replication of the SARS
-CoV-1 genome","TRIF(TICAM1)-mediated TLR4 signaling","Nef and signal transduction","Regulation of TP53 Activity through Phosphorylation","FGFR3 mutant receptor activation","Biosynthesis of maresin-li
ke SPMs","Signaling by cytosolic FGFR1 fusion mutants","Regulation of TP53 Expression and Degradation","Separation of Sister Chromatids","APC/C:Cdc20 mediated degradation of mitotic proteins","Nuclear
 Envelope (NE) Reassembly","Synthesis of bile acids and bile salts via 7alpha-hydroxycholesterol","Nef Mediated CD4 Down-regulation","p38MAPK events","Loss of Nlp from mitotic centrosomes","activated 
TAK1 mediates p38 MAPK activation","Frs2-mediated activation","MAPK targets/ Nuclear events mediated by MAP kinases","ARMS-mediated activation","TRAF6-mediated induction of TAK1 complex within TLR4 co
mplex","Signaling by activated point mutants of FGFR3","Regulation of TP53 Degradation","APC:Cdc20 mediated degradation of cell cycle proteins prior to satisfation of the cell cycle checkpoint","Initi
ation of Nuclear Envelope (NE) Reformation","Activation of the AP-1 family of transcription factors","APC-Cdc20 mediated degradation of Nek2A"}

> <broad_targets>
{ABL1,ABL2,BLK,EPHA2,FGR,FRK,FYN,HCK,KIT,LCK,LYN,PDGFRB,SRC,SRMS,STAT5B,YES1}

> <broad_moa>
{"Bcr-Abl kinase inhibitor","ephrin inhibitor","KIT inhibitor","PDGFR tyrosine kinase receptor inhibitor","SRC inhibitor","tyrosine kinase inhibitor"}

> <synonyms>
{Dasatinib,302962-49-8,302962498,Sprycel,BMS-354825,BMS354825,"BMS 354825","Dasatinib anhydrous","Dasatinib (anhydrous)","Dasatinib (BMS-354825)","Dasatinib (BMS354825)","anh. dasatinib",UNII-X78UG0A0
RN,UNIIX78UG0A0RN,"anhydrous dasatinib","dasatinib (anh.)",CHEMBL1421,X78UG0A0RN,CHEBI:49375,NSC732,T1448,T1448L,732517,S1021,"NSC 732517","Dasatinib monohydrate",dasatinib,DASATINIB}

> <pdid>
PD003446

> <targets>
{Abl/Src,c-Kit,Bcr-Abl,Src-bcr-Abl,SRC,Src,ABL,PDGFR,Apoptosis,Autophagy}

> <classes>
{BCR/ABL/Src inhibitor,Angiogenesis,Apoptosis,Autophagy,Protein Tyrosine Kinase/RTK}

> <pubchem_cids>
{3062316}

$$$$
NCI_AOD5_2014
  SciTegic11012412592D

  9  7  0  0  0  0            999 V2000
   10.2999    1.1254    0.0000 Cl  0  5
    3.9000    2.2500    0.0000 C   0  0
    3.9000    0.7500    0.0000 N   0  3
    2.6000    0.0000    0.0000 C   0  0
    1.3000    0.7500    0.0000 C   0  0
    0.0007    0.0004    0.0000 Cl  0  0
    5.2000    0.0000    0.0000 C   0  0
    6.5000    0.7500    0.0000 C   0  0
    7.7992    0.0004    0.0000 Cl  0  0
  2  3  1  0
  3  4  1  0
  4  5  1  0
  5  6  1  0
  3  7  1  0
  7  8  1  0
  8  9  1  0
M  CHG  2   1  -1   3   1
M  END
> <name>
NCI_AOD5_2014

> <id>
2659

> <plate>
NCI_V5_B

> <well>
C08

> <supplier_cmpd_name>
Mechlorethamine hydrochloride

> <ctcr_id>
186

> <supplier_cmpd_id>
762

> <smiles>
[Cl-].C[NH+](CCCl)CCCl

> <pd_targets>
.

> <pathway_gtopdb>
.

> <pathway_chembl>
.

> <pathway_reactome>
.

> <broad_targets>
.

> <broad_moa>
.

> <synonyms>
{X2940,55-86-7,55867,"Mechlorethamine hydrochloride","Chlormethine hydrochloride","Mechlorethamine HCl","Nitrogen mustard hydrochloride","2-CHLORO-N-(2-CHLOROETHYL)-N-METHYLETHANAMINE HYDROCHLORIDE","
2CHLORON(2CHLOROETHYL)NMETHYLETHANAMINE HYDROCHLORIDE",Chlorethamine,"HN2 hydrochloride",Chlormethinum,Stick,762,"NSC 762"}

> <pdid>

> <targets>
{}

> <classes>
{"Alkylating agent"}

> <pubchem_cids>
{5935,53350389,10583918}

$$$$
NCI_AOD5_2014
  SciTegic11012412592D

 90 96  0  0  1  0            999 V2000
  -26.4468    4.6916    0.0000 C   0  0
  -26.2211    3.7174    0.0000 C   0  0
  -27.3177    2.6939    0.0000 C   0  0
  -24.7845    3.2803    0.0000 C   0  0  1  0  0  0
  -23.8315    2.4532    0.0000 N   0  0
  -22.4122    2.9958    0.0000 C   0  0
  -21.2656    2.0287    0.0000 O   0  0
  -22.1314    4.4114    0.0000 C   0  0  1  0  0  0
  -21.0679    5.4620    0.0000 N   0  0
  -19.6205    5.0651    0.0000 C   0  0
  -19.2412    3.6138    0.0000 O   0  0
  -18.5524    6.1194    0.0000 C   0  0
  -18.9342    7.5701    0.0000 C   0  0
  -17.8688    8.6261    0.0000 C   0  0
  -16.4217    8.2314    0.0000 C   0  0
  -15.3563    9.2874    0.0000 C   0  0
  -16.0399    6.7808    0.0000 C   0  0
  -14.5927    6.3862    0.0000 O   0  0
  -14.2109    4.9356    0.0000 C   0  0
  -12.7638    4.5409    0.0000 C   0  0
  -11.6984    5.5969    0.0000 C   0  0
  -12.3820    3.0903    0.0000 C   0  0
  -10.9348    2.6957    0.0000 O   0  0
  -13.4473    2.0344    0.0000 C   0  0
  -14.8945    2.4290    0.0000 C   0  0
  -16.2562    1.7980    0.0000 C   0  0
  -17.4826    2.6617    0.0000 O   0  0
  -16.3915    0.3033    0.0000 N   0  0
  -17.7532   -0.3278    0.0000 C   0  0  1  0  0  0
  -17.4577    1.1540    0.0000 C   0  0  2  0  0  0
  -18.6062    2.1189    0.0000 C   0  0
  -16.0200    1.7118    0.0000 O   0  0
  -14.9186    0.7190    0.0000 C   0  0
  -13.4980    1.2005    0.0000 O   0  0
  -15.2103   -0.8522    0.0000 C   0  0  2  0  0  0
  -16.4229   -1.7281    0.0000 C   0  0
  -17.7927   -1.1167    0.0000 C   0  0
  -16.2680   -3.2200    0.0000 C   0  0
  -13.9931   -1.0903    0.0000 N   0  0
  -12.5305   -0.7573    0.0000 C   0  0
  -13.3196   -2.4282    0.0000 C   0  0
  -11.8419   -2.6856    0.0000 O   0  0
  -14.4093   -3.4631    0.0000 C   0  0
  -15.6404   -3.2345    0.0000 N   0  0
  -15.8905   -2.2663    0.0000 C   0  0
  -15.9256   -4.7705    0.0000 C   0  0
  -14.7328   -5.6800    0.0000 O   0  0
  -17.4451   -5.5073    0.0000 C   0  0  2  0  0  0
  -18.0815   -6.8446    0.0000 C   0  0
  -19.5705   -6.5682    0.0000 C   0  0
  -19.8239   -4.9929    0.0000 C   0  0
  -18.4456   -4.3633    0.0000 N   0  0
  -18.1687   -2.7409    0.0000 C   0  0
  -17.3485   -2.1688    0.0000 O   0  0
  -19.7281   -2.4514    0.0000 C   0  0  2  0  0  0
  -20.1632   -1.2669    0.0000 N   0  0
  -19.1520   -0.1325    0.0000 C   0  0
  -19.6693    1.2755    0.0000 O   0  0
  -20.7642   -3.5382    0.0000 C   0  0
  -20.3443   -4.9782    0.0000 C   0  0
  -21.7357   -3.3010    0.0000 C   0  0
  -15.2763    3.8796    0.0000 C   0  0
  -16.7234    4.2743    0.0000 N   0  0
  -17.1052    5.7249    0.0000 C   0  0
  -13.0655    0.5838    0.0000 N   0  0
  -20.6081    4.1232    0.0000 C   0  0  2  0  0  0
  -20.1285    2.7019    0.0000 C   0  0
  -19.5762    5.2694    0.0000 O   0  0
  -20.1135    6.6514    0.0000 C   0  0
  -19.1591    7.8086    0.0000 O   0  0
  -21.6859    6.9364    0.0000 C   0  0  2  0  0  0
  -22.9352    6.1136    0.0000 C   0  0
  -22.8498    4.6160    0.0000 C   0  0
  -24.2750    6.7880    0.0000 C   0  0
  -21.4764    8.1588    0.0000 N   0  0
  -20.0374    8.5820    0.0000 C   0  0
  -22.4882    9.2633    0.0000 C   0  0
  -22.2044   10.7362    0.0000 O   0  0
  -23.8425    8.6119    0.0000 C   0  0
  -24.0658    7.3798    0.0000 N   0  0
  -23.2494    6.8023    0.0000 C   0  0
  -25.6030    7.6584    0.0000 C   0  0
  -26.0299    9.0964    0.0000 O   0  0
  -26.8311    6.4993    0.0000 C   0  0  2  0  0  0
  -28.3072    6.3790    0.0000 C   0  0
  -28.5773    4.8888    0.0000 C   0  0
  -27.1945    4.0928    0.0000 C   0  0
  -26.1167    5.1579    0.0000 N   0  0
  -24.5017    4.8410    0.0000 C   0  0
  -23.6757    5.4047    0.0000 O   0  0
  1  2  1  0
  2  3  1  0
  4  2  1  6
  4  5  1  0
  5  6  1  0
  6  7  2  0
  6  8  1  0
  8  9  1  1
  9 10  1  0
 10 11  2  0
 10 12  1  0
 12 13  2  0
 13 14  1  0
 14 15  2  0
 15 16  1  0
 15 17  1  0
 17 18  1  0
 18 19  1  0
 19 20  2  3
 20 21  1  0
 20 22  1  0
 22 23  2  0
 22 24  1  0
 24 25  2  3
 25 26  1  0
 26 27  2  0
 26 28  1  0
 29 28  1  6
 29 30  1  0
 30 31  1  6
 30 32  1  0
 32 33  1  0
 33 34  2  0
 33 35  1  0
 35 36  1  1
 36 37  1  0
 36 38  1  0
 35 39  1  0
 39 40  1  0
 39 41  1  0
 41 42  2  0
 41 43  1  0
 43 44  1  0
 44 45  1  0
 44 46  1  0
 46 47  2  0
 46 48  1  0
 48 49  1  6
 49 50  1  0
 50 51  1  0
 51 52  1  0
 52 48  1  0
 52 53  1  0
 53 54  2  0
 53 55  1  0
 55 56  1  0
 56 57  1  0
 57 29  1  0
 57 58  2  0
 55 59  1  1
 59 60  1  0
 59 61  1  0
 25 62  1  0
 62 19  1  0
 62 63  2  3
 63 64  1  0
 64 12  1  0
 64 17  2  0
 24 65  1  0
  8 66  1  0
 66 67  1  1
 66 68  1  0
 68 69  1  0
 69 70  2  0
 69 71  1  0
 71 72  1  6
 72 73  1  0
 72 74  1  0
 71 75  1  0
 75 76  1  0
 75 77  1  0
 77 78  2  0
 77 79  1  0
 79 80  1  0
 80 81  1  0
 80 82  1  0
 82 83  2  0
 82 84  1  0
 84 85  1  1
 85 86  1  0
 86 87  1  0
 87 88  1  0
 88 84  1  0
 88 89  1  0
 89  4  1  0
 89 90  2  0
M  END
> <name>
NCI_AOD5_2014

> <id>
2660

> <plate>
NCI_V5_B

> <well>
C09

> <supplier_cmpd_name>
Dactinomycin

> <ctcr_id>
2824

> <supplier_cmpd_id>
3053

> <smiles>
CC(C)[C@H]1NC(=O)[C@@H](NC(=O)c2ccc(C)c3OC4=C(C)C(=O)C(=C(C(=O)N[C@H]5[C@H](C)OC(=O)[C@H](C(C)C)N(C)C(=O)CN(C)C(=O)[C@@H]6CCCN6C(=O)[C@H](NC5=O)C(C)C)C4=Nc23)N)[C@H](C)OC(=O)[C@H](C(C)C)N(C)C(=O)CN(C)
C(=O)[C@@H]7CCCN7C1=O

> <pd_targets>
{RPOC,HTT,RORC,BLM,NGLY1,KMT2A,RAD51,ALDH1A1,ALOX15,RECQL,CASP7,ALD,GRB2,HIF1A,CASP1,MAPT,CYP3A4,OST1,HSD17B10,DDR2,TOP2A,TOP2B}

> <pathway_gtopdb>
{"Unclassified protein","Transcription factor",Enzyme,"Epigenetic regulator","Other cytosolic protein","Nuclear receptor",Hydrolase,Reader,Protease,Oxidoreductase,"Cytochrome P450",Kinase,Isomerase,"N
uclear hormone receptor subfamily 1",Bromodomain,"Cysteine protease","Cytochrome P450 family 3","Protein Kinase","Nuclear hormone receptor subfamily 1 group F","Cysteine protease CA clan","Cysteine pr
otease CD clan","Cytochrome P450 family 3A","TK protein kinase group","Nuclear hormone receptor subfamily 1 group F member 3","Cysteine protease C1A family","Cysteine protease C14 family","Cytochrome 
P450 3A4","Tyrosine protein kinase DDR family"}

> <pathway_chembl>
{Receptors,Enzymes,"Nuclear hormone receptors","Chromatin modifying enzymes","Eicosanoid turnover","Peptidases and proteinases","Cytochrome P450","Catalytic receptors","1F. Retinoic acid-related orpha
ns","2.1.1.43 Histone methyltransferases (HMTs)",Lipoxygenases,"CD: Cysteine (C) Peptidases","CYP3 family","Receptor kinases","C14: Caspase","TK: Tyrosine kinase","Receptor tyrosine kinases (RTKs)","T
ype XVI RTKs: DDR (collagen receptor) family"}

> <pathway_reactome>
{"Gene expression (Transcription)","DNA Repair","Metabolism of proteins",Metabolism,"Programmed Cell Death",Disease,"Cellular responses to external stimuli","Neuronal System","Extracellular matrix org
anization","RNA Polymerase II Transcription","DNA Double-Strand Break Repair","Post-translational protein modification","Biological oxidations","Metabolism of lipids",Apoptosis,"Diseases of signal tra
nsduction by growth factor receptors and second messengers","Cellular responses to stress","Transmission across Chemical Synapses","Metabolism of amino acids and derivatives","Non-integrin membrane-EC
M interactions","Generic Transcription Pathway","Homology Directed Repair","Asparagine N-linked glycosylation","Phase I - Functionalization of compounds","Biosynthesis of specialized proresolving medi
ators (SPMs)","Intrinsic Pathway for Apoptosis","Signaling by FGFR in disease","Cellular response to hypoxia","Neurotransmitter receptors and postsynaptic signal transmission","Branched-chain amino ac
id catabolism","Transcriptional Regulation by MECP2","Transcriptional regulation by RUNX3","HDR through Homologous Recombination (HRR) or Single Strand Annealing (SSA)","N-glycan trimming in the ER an
d Calnexin/Calreticulin cycle","Transcriptional regulation by RUNX1","Ethanol oxidation","Biosynthesis of DPA-derived SPMs","Apoptotic factor-mediated response","Signaling by FGFR1 in disease","Oxygen
-dependent proline hydroxylation of Hypoxia-inducible Factor Alpha","Transcriptional Regulation by TP53","Activation of NMDA receptors and postsynaptic events","Biosynthesis of DHA-derived SPMs","Regu
lation of MECP2 expression and activity","RUNX3 Regulates Immune Response and Cell Migration","HDR through Homologous Recombination (HRR)","RUNX1 regulates genes involved in megakaryocyte differentiat
ion and platelet function","Biosynthesis of DPAn-3 SPMs","Cytochrome c-mediated apoptotic response","FGFR1 mutant receptor activation","TP53 Regulates Transcription of Cell Death Genes","Post NMDA rec
eptor activation events","Biosynthesis of maresins","Homologous DNA Pairing and Strand Exchange","Biosynthesis of DPAn-3-derived protectins and resolvins","Activation of caspases through apoptosome-me
diated cleavage","Signaling by cytosolic FGFR1 fusion mutants","TP53 Regulates Transcription of Caspase Activators and Caspases","Activation of AMPK downstream of NMDARs","Biosynthesis of maresin-like
 SPMs","Presynaptic phase of homologous DNA pairing and strand exchange"}

> <broad_targets>
{POLR2A}

> <broad_moa>
{"RNA polymerase inhibitor"}

> <synonyms>
{"actinomycin D","Lyovac cosmegen","Actinomycin Aiv","Dactinomycin D","Oncostatin K","Actinomycin 7","Actinomycin X 1","HBF 386",Acto-D,ActoD,"Acto D","Actinomycin C(sub1)","Dilactone actinomycin D ac
id","Dilactone actinomycindioic D acid",NSC30,3053,NSC3053,"NSC 3053
NSC 3053",Dactinomycin}

> <pdid>
PD003038

> <targets>
{}

> <classes>
{"Nucleic Acid Synthesis Inhibitors"}

> <pubchem_cids>
{44415057}

$$$$
NCI_AOD5_2014
  SciTegic11012412592D

 15 15  0  0  0  0            999 V2000
    2.5981   -1.5000    0.0000 O   0  0
    1.2990   -0.7500    0.0000 C   0  0
    1.2990    0.7500    0.0000 N   0  0
    0.0000    1.5000    0.0000 C   0  0
   -1.2990    0.7500    0.0000 C   0  0
   -2.5973    1.5031    0.0000 N   0  0
   -2.5951    3.0039    0.0000 C   0  0
   -3.8933    3.7570    0.0000 C   0  0
   -3.8912    5.2570    0.0000 Cl  0  0
   -3.8999    0.7576    0.0000 C   0  0
   -5.1972    1.5121    0.0000 C   0  0
   -6.4991    0.7670    0.0000 Cl  0  0
   -1.2990   -0.7500    0.0000 C   0  0
   -2.5981   -1.5000    0.0000 O   0  0
    0.0000   -1.5000    0.0000 N   0  0
  1  2  1  0
  2  3  2  0
  3  4  1  0
  4  5  2  0
  5  6  1  0
  6  7  1  0
  7  8  1  0
  8  9  1  0
  6 10  1  0
 10 11  1  0
 11 12  1  0
  5 13  1  0
 13 14  1  0
 13 15  2  0
 15  2  1  0
M  END
> <name>
NCI_AOD5_2014

> <id>
2661

> <plate>
NCI_V5_B

> <well>
C10

> <supplier_cmpd_name>
Uracil mustard

> <ctcr_id>
2736

> <supplier_cmpd_id>
34462

> <smiles>
Oc1ncc(N(CCCl)CCCl)c(O)n1

> <pd_targets>
.

> <pathway_gtopdb>
.

> <pathway_chembl>
.

> <pathway_reactome>
.

> <broad_targets>
.

> <broad_moa>
.

> <synonyms>
{Uramustine,"URACIL MUSTARD",66-75-1,66751,"66 75 1",Desmethyldopan,"Aminouracil mustard",Demethyldopan,Uramustin,Chlorethaminacil,"Uracil nitrogen mustard",Uracilmostaza,Nordopan,Uracillost,"5-Aminou
racil mustard","5Aminouracil mustard",34462,"NSC 34462","Uracil mustard"}

> <pdid>

> <targets>
{}

> <classes>
{"Alkylating agent"}

> <pubchem_cids>
{6194}

$$$$
NCI_AOD5_2014
  SciTegic11012412592D

 28 29  0  0  1  0            999 V2000
   -1.3047   -9.7581    0.0000 C   0  0
   -1.3042   -8.2581    0.0000 C   0  0
   -2.6033   -7.5081    0.0000 C   0  0
   -0.0047   -7.5072    0.0000 C   0  0
   -0.0043   -6.0064    0.0000 C   0  0  2  0  0  0
    1.2952   -5.2556    0.0000 N   0  0
    1.2956   -3.7547    0.0000 C   0  0
   -0.0034   -3.0048    0.0000 O   0  0
    2.5951   -3.0039    0.0000 C   0  0  2  0  0  0
    2.5973   -1.5030    0.0000 C   0  0
    1.2990   -0.7500    0.0000 C   0  0
    1.2990    0.7500    0.0000 C   0  0
    0.0000    1.5000    0.0000 C   0  0
   -1.2990    0.7500    0.0000 C   0  0
   -1.2990   -0.7500    0.0000 C   0  0
    0.0000   -1.5000    0.0000 C   0  0
    3.8935   -3.7569    0.0000 N   0  0
    3.8914   -5.2577    0.0000 C   0  0
    2.5911   -6.0055    0.0000 O   0  0
    5.1896   -6.0107    0.0000 C   0  0
    5.1898   -7.5108    0.0000 C   0  0
    6.4888   -8.2607    0.0000 N   0  0
    7.7878   -7.5107    0.0000 C   0  0
    7.7878   -6.0107    0.0000 C   0  0
    6.4888   -5.2607    0.0000 N   0  0
   -1.3025   -5.2533    0.0000 B   0  0
   -1.3004   -3.7533    0.0000 O   0  0
   -2.6029   -6.0011    0.0000 O   0  0
  1  2  1  0
  2  3  1  0
  2  4  1  0
  5  4  1  1
  5  6  1  0
  6  7  1  0
  7  8  2  0
  7  9  1  0
  9 10  1  6
 10 11  1  0
 11 12  2  0
 12 13  1  0
 13 14  2  0
 14 15  1  0
 15 16  2  0
 16 11  1  0
  9 17  1  0
 17 18  1  0
 18 19  2  0
 18 20  1  0
 20 21  2  0
 21 22  1  0
 22 23  2  0
 23 24  1  0
 24 25  2  0
 25 20  1  0
  5 26  1  0
 26 27  1  0
 26 28  1  0
M  END
> <name>
NCI_AOD5_2014

> <id>
2662

> <plate>
NCI_V5_B

> <well>
C11

> <supplier_cmpd_name>
Bortezomib

> <ctcr_id>
2910

> <supplier_cmpd_id>
681239

> <smiles>
CC(C)C[C@H](NC(=O)[C@H](Cc1ccccc1)NC(=O)c2cnccn2)B(O)O

> <pd_targets>
{ELANE,CTSG,CMA1,PSMB8,PSMB1,ADRM1,PSMA1,PSMA2,PSMA3,PSMA4,PSMA5,PSMA6,PSMA7,PSMA8,PSMB10,PSMB11,PSMB2,PSMB3,PSMB4,PSMB5,PSMB6,PSMB7,PSMB9,PSMC1,PSMC2,PSMC3,PSMC4,PSMC5,PSMC6,PSMD1,PSMD11,PSMD12,PSMD1
3,PSMD14,PSMD2,PSMD3,PSMD4,PSMD6,PSMD7,PSMD8,SEM1,CTSA,CA7,MTCA1,CA5A,CA1,CA3,CA5B,CA14,CA2,CA12,F2,CA4,CTRB1,CA9,CA13,CA6,CA15,NFKB1,NFKB2,RELA}

> <pathway_gtopdb>
{Enzyme,"Other cytosolic protein",Protease,Lyase,Hydrolase,"Serine protease","Threonine protease","Metallo protease","Serine protease PA clan","Threonine protease PBT clan","Metallo protease MP clan",
"Serine protease SC clan","Serine protease S1A subfamily","Threonine protease T1A subfamily","Metallo protease M67 family","Serine protease S10 family","Threonine protease T1B subfamily","Metallo prot
ease M67A subfamily"}

> <pathway_chembl>
{Enzymes,"Other protein targets","Peptidases and proteinases","Carbonic anhydrases","Anti-infective targets","PA: Serine (S) Peptidases","PB: Threonine (T) Peptidases","SC: Serine (S) Peptidases","Ant
imalarial targets","S1: Chymotrypsin","T1: Proteasome","S10: Carboxypeptidase Y","Other antimalarial targets"}

> <pathway_reactome>
{"Immune System",Disease,"Extracellular matrix organization","Cell Cycle","Metabolism of proteins",Metabolism,"Transport of small molecules","Cellular responses to external stimuli","Innate Immune Sys
tem","Infectious disease","Degradation of the extracellular matrix",Mitotic,"Post-translational protein modification","Reversible hydration of carbon dioxide","Cytokine Signaling in Immune system","O2
/CO2 exchange in erythrocytes","Diseases of hemostasis","Metabolism of vitamins and cofactors","Cellular responses to stress","Complement cascade","Infection with Mycobacterium tuberculosis","Activati
on of Matrix Metalloproteinases","Regulation of mitotic cell cycle","Asparagine N-linked glycosylation","Signaling by Interleukins","Erythrocytes take up carbon dioxide and release oxygen","Defects of
 contact activation system (CAS) and kallikrein/kinin system (KKS)","Metabolism of water-soluble vitamins and cofactors","Cellular response to hypoxia","Regulation of Complement cascade","Response of 
Mtb to phagocytosis","APC/C-mediated degradation of cell cycle proteins","Biosynthesis of the N-glycan precursor (dolichol lipid-linked oligosaccharide","LLO) and transfer to a nascent protein","Inter
leukin-12 family signaling","Defective factor VIII causes hemophilia A","Cobalamin (Cbl","vitamin B12) transport and metabolism","Regulation of gene expression by Hypoxia-inducible Factor","Suppressio
n of apoptosis","Activation of APC/C and APC/C:Cdc20 mediated degradation of mitotic proteins","Synthesis of substrates in N-glycan biosythesis","Interleukin-12 signaling","Defective F8 cleavage by th
rombin","APC/C:Cdc20 mediated degradation of mitotic proteins","Sialic acid metabolism","Gene and protein expression by JAK-STAT signaling after Interleukin-12 stimulation","APC:Cdc20 mediated degrada
tion of cell cycle proteins prior to satisfation of the cell cycle checkpoint","Cdc20:Phospho-APC/C mediated degradation of Cyclin A"}

> <broad_targets>
{PSMA1,PSMA2,PSMA3,PSMA4,PSMA5,PSMA6,PSMA7,PSMA8,PSMB1,PSMB10,PSMB11,PSMB2,PSMB3,PSMB4,PSMB5,PSMB6,PSMB7,PSMB8,PSMB9,PSMD1,PSMD2,RELA}

> <broad_moa>
{"NFkB pathway inhibitor","proteasome inhibitor"}

> <synonyms>
{Bortezomib,179324-69-7,179324697,Velcade,PS-341,PS341,LDP-341,LDP341,"Bortezomib (PS-341)","Bortezomib (PS341)","Ps 341",UNII-69G8BD63PP,UNII69G8BD63PP,"Bortezomib (Velcade)",MLN-341,MLN341,MG-341,MG
341,NSC-681239,NSC681239,69G8BD63PP,CHEMBL325041,"Peptide boronate",CHEBI:52717,MFCD09056737,NCGC00242506-02,NCGC0024250602,S1013,DS,T2399,10008822,681239,"NSC 681239",bortezomib,BORTEZOMIB}

> <pdid>
PD003632

> <targets>
{Proteasome Inhibitors,Apoptosis,Autophagy,NF-B,Proteasome}

> <classes>
{Proteasome inhibitor,Apoptosis,Autophagy,Metabolic Enzyme/Protease,NF-B}

> <pubchem_cids>
{387447}

$$$$
NCI_AOD5_2014
  SciTegic11012412592D

 36 39  0  0  0  0            999 V2000
    3.8794    3.7535    0.0000 C   0  0
    5.1821    3.0099    0.0000 O   0  0
    5.1903    1.5091    0.0000 C   0  0
    3.8939    0.7546    0.0000 C   0  0
    3.8990   -0.7455    0.0000 C   0  0
    2.6003   -1.4977    0.0000 N   0  0
    1.2990   -0.7500    0.0000 C   0  0
    1.2990    0.7500    0.0000 C   0  0
    0.0000    1.5000    0.0000 C   0  0
   -1.2990    0.7500    0.0000 N   0  0
   -1.2990   -0.7500    0.0000 C   0  0
   -2.5981   -1.5000    0.0000 C   0  0
   -2.5981   -3.0000    0.0000 C   0  0
   -3.8994   -3.7478    0.0000 O   0  0
   -5.1981   -2.9955    0.0000 C   0  0
   -6.4993   -3.7433    0.0000 C   0  0
   -7.7980   -2.9910    0.0000 C   0  0
   -9.0993   -3.7387    0.0000 N   0  0
  -10.3984   -2.9888    0.0000 C   0  0
  -11.6975   -3.7388    0.0000 C   0  0
  -11.6975   -5.2388    0.0000 N   0  0
  -12.9965   -5.9887    0.0000 C   0  0
  -10.3985   -5.9888    0.0000 C   0  0
   -9.0994   -5.2388    0.0000 C   0  0
   -1.2990   -3.7500    0.0000 C   0  0
   -1.2959   -5.2508    0.0000 O   0  0
    0.0042   -5.9990    0.0000 C   0  0
    0.0000   -3.0000    0.0000 C   0  0
    0.0000   -1.5000    0.0000 C   0  0
    2.5988    1.5004    0.0000 C   0  0
    3.8978    2.2504    0.0000 N   0  0
    5.2007   -1.4909    0.0000 C   0  0
    5.2059   -2.9909    0.0000 Cl  0  0
    6.4972   -0.7364    0.0000 C   0  0
    6.4920    0.7636    0.0000 C   0  0
    7.7884    1.5180    0.0000 Cl  0  0
  1  2  1  0
  2  3  1  0
  3  4  2  0
  4  5  1  0
  5  6  1  0
  6  7  1  0
  7  8  2  0
  8  9  1  0
  9 10  2  0
 10 11  1  0
 11 12  2  0
 12 13  1  0
 13 14  1  0
 14 15  1  0
 15 16  1  0
 16 17  1  0
 17 18  1  0
 18 19  1  0
 19 20  1  0
 20 21  1  0
 21 22  1  0
 21 23  1  0
 23 24  1  0
 24 18  1  0
 13 25  2  0
 25 26  1  0
 26 27  1  0
 25 28  1  0
 28 29  2  0
 29  7  1  0
 29 11  1  0
  8 30  1  0
 30 31  3  0
  5 32  2  0
 32 33  1  0
 32 34  1  0
 34 35  2  0
 35  3  1  0
 35 36  1  0
M  END
> <name>
NCI_AOD5_2014

> <id>
2663

> <plate>
NCI_V5_B

> <well>
D2

> <supplier_cmpd_name>
Bosutinib

> <ctcr_id>
570

> <supplier_cmpd_id>
Bosutinib

> <smiles>
COc1cc(Nc2c(cnc3cc(OCCCN4CCN(C)CC4)c(OC)cc23)C#N)c(Cl)cc1Cl

> <pd_targets>
{EPHA4,JAK2,MAP3K12,CDK14,SLK,SRC,FYN,ABL1,PAK1,CLK2,FLT3,ALK,MINK1,EGFR,MET,ROCK2,LRRK2,MAP3K19,MAP2K2,RIOK1,KIT,LCK,TAOK3,MYO3A,CIT,STK36,BMP2K,MAP4K4,TNK2,BMX,MAP2K1,BTK,FGR,PTK2B,STK4,ERBB4,STK32A
,RIOK3,WEE1,CDK7,DDR2,DDR1,PAK3,MAP2K3,TIE1,STK3,STK25,MAP3K2,SRPK3,ULK2,AXL,FES,IRAK4,SYK,MAP4K2,TEC,STK24,MERTK,NEK2,ERBB3,PAK2,RPS6KB1,MAP3K13,PKMYT1,CAMK1D,ABL2,LYN,PDGFRA,RIPK2,STK33,DCLK3,GRK7,H
IPK4,NIM1K,STK10,SIK1,YES1,HCK,TXK,NTRK3,TLK2,CHEK2,MAP2K5,DSTYK,PIP5K1A,CHEK1,MAP3K3,MST1R,CLK4,SRMS,STK35,MAP3K1,EIF2AK1,ANKK1,NEK11,HIPK1,WEE2,PLK1,MYO3B,BMPR2,MAP4K3,TNNI3K,EPHA6,MAPK7,TAOK2,PTK2,
LTK,DMPK,EPHA1,EPHA3,PRKCD,TYRO3,TLK1,IKBKE,RET,ERBB2,TEK,CLK3,CASK,PRKAA1,EPHB6,EPHB3,HIPK3,VRK2,STK39,NUAK1,TNIK,STK26,MAP3K4,EPHB2,EPHB4,JAK3,FRK,RPS6KA3,MAP4K5,PKNB,TSSK1B,TBK1,BLK,NTRK1,SIK3,TAOK
1,CAMK2G,CLK1,HIPK2,MAP3K7,CSNK1A1,ULK1,MYLK,NUAK2,GAK,PKN2,PRKD3,EPHA8,EPHA5,PKN1,CSK,EPHA2,EPHB1,CSF1R,PRKCE,ITK,CAMKK2,EIF2AK4,ULK3,MATK,TYK2,FER,NTRK2,AAK1,NLK,MAST1,SIK2,MAP2K7,GRK4,ROCK1,PHKG1,P
LK2,RPS6KA2,RPS6KA6,MAP4K1,PDGFRB,BCR,CSNK1E,MAP3K11,MAP2K6,MAP2K4,MAP3K20,HUNK,CDK16,PHKG2,MAP3K9,CSNK1A1L,ZAP70,CDK15,CAMK2A,IRAK1,PRKCQ,CSNK1D,NPM1,CDK2}

> <pathway_gtopdb>
{Enzyme,"Unclassified protein",Kinase,"Protein Kinase","TK protein kinase group","STE protein kinase group","CMGC protein kinase group","TKL protein kinase group","AGC protein kinase group","Atypical 
protein kinase group","Other protein kinase group","CAMK protein kinase group","CK1 protein kinase group","Tyrosine protein kinase Eph family","Tyrosine protein kinase JakA family","CMGC protein kinas
e CDK family","STE protein kinase STE20 family","Tyrosine protein kinase Src family","Tyrosine protein kinase Abl family","CMGC protein kinase CLK family","Tyrosine protein kinase PDGFR family","TKL p
rotein kinase STKR family","Tyrosine protein kinase EGFR family","Tyrosine protein kinase Met family","AGC protein kinase DMPK family","TKL protein kinase LRRK family","STE protein kinase STE11 family
","STE protein kinase STE7 family","Atypical protein kinase RIO family","Other protein kinase ULK family","Other protein kinase NAK family","Tyrosine protein kinase Ack family","Tyrosine protein kinas
e Tec family","Tyrosine protein kinase Fak family","AGC protein kinase YANK family","Other protein kinase WEE family","Tyrosine protein kinase DDR family","Tyrosine protein kinase Tie family","CMGC pr
otein kinase SRPK family","Tyrosine protein kinase Axl family","Tyrosine protein kinase Fer family","TKL protein kinase IRAK family","Tyrosine protein kinase Syk family","Other protein kinase NEK fami
ly","AGC protein kinase RSK family","TKL protein kinase MLK family","CAMK protein kinase CAMK1 family","TKL protein kinase RIPK family","CAMK protein kinase unique family","CAMK protein kinase DCAMK1 
family","AGC protein kinase GRK family","CMGC protein kinase DYRK family","Tyrosine protein kinase Trk family","Other protein kinase TLK family","CAMK protein kinase RAD53 family","Other protein kinas
e NKF4 family","Other protein kinase PEK family","Other protein kinase PLK family","CMGC protein kinase MAPK family","Tyrosine protein kinase Alk family","AGC protein kinase PKC family","Tyrosine prot
ein kinase Ret family","CAMK protein kinase TSSK family","Other protein kinase IKK family","CAMK protein kinase CAMK2 family","CK1 protein kinase CK1 family","CAMK protein kinase MLCK family","AGC pro
tein kinase PKN family","CAMK protein kinase PKD family","Tyrosine protein kinase Csk family","Other protein kinase CAMKK family","AGC protein kinase MAST family","CAMK protein kinase PHk family","Aty
pical protein kinase BCR family","CMGC protein kinase PFTAIRE","STE protein kinase SLK subfamily","Tyrosine protein kinase SrcA","STE protein kinase PAKA subfamily","TKL protein kinase STKR Type 1 sub
family","STE protein kinase MSN subfamily","AGC protein kinase ROCK subfamily","Atypical protein kinase RIO1 subfamily","STE protein kinase TAO subfamily","STE protein kinase NinaC subfamily","AGC pro
tein kinase CRIK subfamily","STE protein kinase MST subfamily","Atypical protein kinase RIO3 subfamily","CMGC protein kinase CDK7 subfamily","STE protein kinase YSK subfamily","STE protein kinase MEKK
2","STE protein kinase KHS subfamily","AGC protein kinase p70 subfamily","TKL protein kinase LZK subfamily","AGC protein kinase GRK subfamily","CMGC protein kinase HIPK subfamily","CAMK protein kinase
 NIM1 subfamily","CAMK protein kinase QIK subfamily","CAMK protein kinase CHK1 subfamily","Tyrosine protein kinase Srm","Other protein kinase HRI","Other protein kinase Nek11","Other protein kinase WE
E1","TKL protein kinase STKR Type 2 subfamily","TKL protein kinase HH498 subfamily","CMGC protein kinase ERK5","AGC protein kinase GEK subfamily","AGC protein kinase PKC delta subfamily","CAMK protein
 kinase AMPK subfamily","STE protein kinase FRAY subfamily","CAMK protein kinase NuaK subfamily","AGC protein kinase RSK subfamily","TKL protein kinase TAK1 subfamily","AGC protein kinase PKC eta subf
amily","Other protein kinase Meta subfamily","Other protein kinase GCN2 subfamily","CMGC protein kinase nmo subfamily","Other protein kinase PLK2","TKL protein kinase MLK subfamily","CMGC protein kina
se TAIRE subfamily","CK1 protein kinase CK1-a","CMGC protein kinase CDC2 subfamily"}

> <pathway_chembl>
{Receptors,Enzymes,"Catalytic receptors","Kinases (EC 2.7.x.x)","Receptor kinases","CMGC: Containing CDK",MAPK,GSK3,"CLK families","STE: Homologs of yeast Sterile 7","Sterile 11","Sterile 20 kinases",
"AGC: Containing PKA",PKG,"PKC families",Atypical,"CAMK: Calcium/calmodulin-dependent protein kinases","Lipid modifying kinases","CK1: Casein kinase 1","TK: Tyrosine kinase","TKL: Tyrosine kinase-like
","Cyclin-dependent kinase (CDK) family","STE20 family","CLK family","DMPK family","STE7 family","RIO family","Other protein kinases","YANK family","STE11 family","SRPK family","RSK family","CAMK1 fam
ily","CAMK-unique family","DCAMKL family","G protein-coupled receptor kinases (GRKs)","Dual-specificity tyrosine-(Y)-phosphorylation regulated kinase (DYRK) family","CAMK-like (CAMKL) family","Type I 
PIP kinases (1-phosphatidylinositol-4-phosphate 5-kinase family)","Mitogen-activated protein kinases (MAP kinases)","Protein kinase C (PKC) family","CASK family","Vaccina related kinase (VRK) family",
"Testis specific kinase (TSSK) family","CAMK2 family","Casein kinase 1 (CK1) family","Myosin Light Chain Kinase (MLCK) family","Protein kinase N (PKN) family","Protein kinase D (PKD) family","MAST fam
ily","Phosphorylase kinase (PHK) family","BCR family","Receptor tyrosine kinases (RTKs)","Non-receptor tyrosine kinases (nRTKs)","Mixed Lineage Kinase (MLK) family","TAIRE subfamily","SLK subfamily","
PAKA subfamily","MSN subfamily","Rho kinase","Leucine-rich repeat kinase (LRRK) family","STE20 subfamily","RIO1 subfamily","TAO subfamily","NinaC subfamily","Other DMPK family kinases","Unc-51-like ki
nase (ULK) family","Numb-associated kinase (NAK) family","MST subfamily","RIO3 subfamily","WEE family","CDK7 subfamily","YSK subfamily","Interleukin-1 receptor-associated kinase (IRAK) family","KHS su
bfamily","NIMA (never in mitosis gene a)- related kinase (NEK) family","p70 subfamily","Receptor interacting protein kinase (RIPK) family","Opsin/rhodopsin kinases","HIPK subfamily","NIM1 subfamily","
QIK subfamily","Tousled-like kinase (TLK) family","CHK1 subfamily","Other-unique family","NKF4 family","PEK family","Polo-like kinase (PLK) family","Receptor serine/threonine kinase (RSTK) family","ER
K subfamily","GEK subfamily","Delta subfamily","IKK family","AMPK subfamily","FRAY subfamily","NuaK subfamily","RSK subfamily","Eta subfamily","CAMKK family","NAK family","nmo subfamily","GRK4 subfami
ly","HUNK subfamily","CDK1 subfamily","Type XIII RTKs: Ephrin receptor family","Janus kinase (JakA) family","LZK subfamily","Src family","Abl family","Type III RTKs: PDGFR",CSFR,Kit,"FLT3 receptor fam
ily","Type XIX RTKs: Leukocyte tyrosine kinase (LTK) receptor family","Type I RTKs: ErbB (epidermal growth factor) receptor family","Type X RTKs: HGF (hepatocyte growth factor) receptor family","Ack f
amily","Tec family","Fak family","Type XVI RTKs: DDR (collagen receptor) family","Type XII RTKs: TIE family of angiopoietin receptors","Type XI RTKs: TAM (TYRO3-","AXL- and MER-TK) receptor family","F
er family","Syk family","Type VII RTKs: Neurotrophin receptor/Trk family","Other PEK family kinases","Type II receptor serine/threonine kinases","HH498 subfamily","Type XIV RTKs: RET","TAK1 subfamily"
,"Csk family","Meta subfamily","GCN2 subfamily","MLK subfamily"}

> <pathway_reactome>
{"Developmental Biology","Cell Cycle","Signal Transduction",Disease,"Cellular responses to external stimuli","Metabolism of RNA",Metabolism,"Immune System","Neuronal System","Extracellular matrix orga
nization","Programmed Cell Death",Hemostasis,"Circadian Clock","Gene expression (Transcription)","DNA Repair","Muscle contraction",Autophagy,"Vesicle-mediated transport","Nervous system development",M
itotic,"Signaling by Receptor Tyrosine Kinases","Infectious disease","Cellular responses to stress","Signaling by GPCR","Signaling by Non-Receptor Tyrosine Kinases","rRNA processing","Diseases of sign
al transduction by growth factor receptors and second messengers","Signaling by Rho GTPases","Metabolism of lipids","Cytokine Signaling in Immune system","Signaling by Hippo","Transmission across Chem
ical Synapses","Cell Cycle Checkpoints","Non-integrin membrane-ECM interactions","Innate Immune System",Apoptosis,"Cell surface interactions at the vascular wall","Intracellular signaling by second me
ssengers","MTOR signalling","RNA Polymerase II Transcription","DNA Double-Strand Break Repair","Signaling by TGFB family members","Cardiac conduction","MAPK family signaling cascades",Macroautophagy,"
Membrane Trafficking","Adaptive Immune System","Signaling by Hedgehog","Signaling by WNT","Metabolism of carbohydrates","Axon guidance","Mitotic G1 phase and G1/S transition","Signaling by NTRKs","HIV
 Infection","Leishmania infection","Signaling by Insulin receptor","Cellular Senescence","GPCR downstream signalling","Signaling by PTK6","rRNA processing in the nucleus and cytosol","Signaling by KIT
 in disease","RHO GTPase Effectors","Phospholipid metabolism","Signaling by Interleukins","Neurotransmitter receptors and postsynaptic signal transmission","G2/M Checkpoints","Toll-like Receptor Casca
des","Signaling by VEGF","Apoptotic execution phase","Regulation of mitotic cell cycle","PIP3 activates AKT signaling","mTORC1-mediated signalling","Mitotic G2-G2/M phases","Signaling by PDGFR in dise
ase","Neutrophil degranulation","Fc epsilon receptor (FCERI) signaling","Generic Transcription Pathway","Homology Directed Repair","Signaling by MST1","Response of EIF2AK1 (HRI) to heme deficiency","S
ignaling by BMP","Ion homeostasis","DAG and IP3 signaling","MAPK1/MAPK3 signaling","M Phase","Signaling by WNT in cancer","Selective autophagy","trans-Golgi Network Vesicle Budding","Sphingolipid meta
bolism","Oncogenic MAPK signaling","Fcgamma receptor (FCGR) dependent phagocytosis","TCR signaling","Response of EIF2AK4 (GCN2) to amino acid deficiency","Hedgehog 'on' state","Signaling by ERBB2","In
terferon Signaling","Signaling by SCF-KIT","Clathrin-mediated endocytosis","Beta-catenin independent WNT signaling","Glycogen metabolism","Signaling by FGFR in disease","EPH-Ephrin signaling","G1 Phas
e","Signaling by NTRK1 (TRKA)","Host Interactions of HIV factors","Parasite infection","Insulin receptor signalling cascade","Oxidative Stress Induced Senescence","G alpha (q) signalling events","Sema
phorin interactions","PTK6 promotes HIF1A stabilization","Major pathway of rRNA processing in the nucleolus and cytosol","Drug resistance of KIT mutants","RHO GTPases activate CIT","PI Metabolism","Le
ishmania parasite growth and survival","Interleukin-2 family signaling","Activation of NMDA receptors and postsynaptic events","G2/M DNA damage checkpoint","HIV Life Cycle","Toll Like Receptor 5 (TLR5
) Cascade","VEGFA-VEGFR2 Pathway","Toll Like Receptor 2 (TLR2) Cascade",Interleukin-3,"Interleukin-5 and GM-CSF signaling","Apoptotic cleavage of cellular proteins","APC/C-mediated degradation of cell
 cycle proteins","Negative regulation of the PI3K/AKT network","G2/M Transition","Signaling by ROBO receptors","Drug resistance of PDGFR mutants","G alpha (i) signalling events","FCERI mediated Ca+2 m
obilization","Signaling by NTRK3 (TRKC)","Transcriptional Regulation by TP53","HDR through Homologous Recombination (HRR) or Single Strand Annealing (SSA)","Interleukin-1 family signaling","PTK6 Down-
Regulation","CaM pathway","Toll Like Receptor 4 (TLR4) Cascade","RET signaling","RAF/MAP kinase cascade","Mitotic Metaphase and Anaphase","PTEN Regulation","Transcriptional regulation by RUNX1","Signa
ling by AMER1 mutants",Mitophagy,"RHO GTPases activate PAKs","Golgi Associated Vesicle Biogenesis","RHO GTPases activate PKNs","Sphingolipid de novo biosynthesis","Signaling by RAS mutants","Transcrip
tional Regulation by VENTX","Role of phospholipids in phagocytosis","Generation of second messenger molecules","Downregulation of ERBB2 signaling","Interferon alpha/beta signaling","Cargo recognition 
for clathrin-mediated endocytosis","Ca2+ pathway","Glycogen breakdown (glycogenolysis)","Signaling by FGFR1 in disease","EPHA-mediated growth cone collapse","Cyclin D associated events in G1","Signall
ing to ERKs","The role of Nef in HIV-1 replication and disease pathogenesis","Leishmania phagocytosis","EPHB-mediated forward signaling","IRS-mediated signalling","Gastrin-CREB signalling pathway via 
PKC and MAPK","Sema4D in semaphorin signaling","Dasatinib-resistant KIT mutants","Synthesis of PIPs at the plasma membrane","Anti-inflammatory response favouring Leishmania parasite infection","Interl
eukin-2 signaling","Post NMDA receptor activation events","Chk1/Chk2(Cds1) mediated inactivation of Cyclin B:Cdk1 complex","Late Phase of HIV Life Cycle","Ephrin signaling","MyD88 cascade initiated on
 plasma membrane","CRMPs in Sema3A signaling","Toll Like Receptor TLR6:TLR2 Cascade","Activation of APC/C and APC/C:Cdc20 mediated degradation of mitotic proteins",PI5P,"PP2A and IER3 Regulate PI3K/AK
T Signaling","Cyclin A/B1/B2 associated events during G2/M transition","Role of ABL in ROBO-SLIT signaling","Imatinib-resistant PDGFR mutants","Visual phototransduction","Activated NTRK3 signals throu
gh PI3K","Regulation of TP53 Activity","Signalling to ERK5","HDR through Homologous Recombination (HRR)","Interleukin-1 signaling","Centrosome maturation","Calmodulin induced events","MyD88-independen
t TLR4 cascade","Assembly and cell surface presentation of NMDA receptors","Mitotic Anaphase","Interleukin-15 signaling","Regulation of PTEN stability and activity","RUNX1 regulates transcription of g
enes involved in BCR signaling","Truncations of AMER1 destabilize the destruction complex","Receptor Mediated Mitophagy","Activated PKN1 stimulates transcription of AR (androgen receptor) regulated ge
nes KLK2 and KLK3","Signaling downstream of RAS mutants","Regulation of IFNA signaling","Activation of TRKA receptors","FGFR1 mutant receptor activation","Signalling to RAS","Nef and signal transducti
on","FCGR3A-mediated phagocytosis","PI3K Cascade","EGFR Transactivation by Gastrin","Sema4D mediated inhibition of cell attachment and migration","Sema4D induced cell migration and growth-cone collaps
e","Prolonged ERK activation events","Nef-mediates down modulation of cell surface receptors by recruiting them to clathrin adapters","FCGR3A-mediated IL10 synthesis","Long-term potentiation","Transcr
iption of the HIV genome","MAP kinase activation","MyD88:MAL(TIRAP) cascade initiated on plasma membrane","APC/C:Cdc20 mediated degradation of mitotic proteins","The phototransduction cascade","Regula
tion of TP53 Expression and Degradation","Homologous DNA Pairing and Strand Exchange","Regulation of TP53 Activity through Phosphorylation","Loss of proteins required for interphase microtubule organi
zation from the centrosome","TRIF(TICAM1)-mediated TLR4 signaling","Nuclear Envelope (NE) Reassembly","Separation of Sister Chromatids","CREB1 phosphorylation through NMDA receptor-mediated activation
 of RAS signaling","Activation of AMPK downstream of NMDARs","NGF-independant TRKA activation","CD163 mediating an anti-inflammatory response","Regulation of TP53 Activity through Acetylation","Signal
ing by cytosolic FGFR1 fusion mutants","p38MAPK events","Frs2-mediated activation","Nef Mediated CD4 Down-regulation","HIV Transcription Elongation","activated TAK1 mediates p38 MAPK activation","APC:
Cdc20 mediated degradation of cell cycle proteins prior to satisfation of the cell cycle checkpoint",Inactivation,"recovery and regulation of the phototransduction cascade","Regulation of TP53 Degrada
tion","Presynaptic phase of homologous DNA pairing and strand exchange","Loss of Nlp from mitotic centrosomes","MAPK targets/ Nuclear events mediated by MAP kinases","Activation of IRF3/IRF7 mediated 
by TBK1/IKK epsilon","Initiation of Nuclear Envelope (NE) Reformation","ARMS-mediated activation","Ras activation upon Ca2+ influx through NMDA receptor","TRAF6-mediated induction of TAK1 complex with
in TLR4 complex","JNK (c-Jun kinases) phosphorylation and  activation mediated by activated human TAK1","RSK activation","PI5P Regulates TP53 Acetylation","Tat-mediated elongation of the HIV-1 transcr
ipt","APC-Cdc20 mediated degradation of Nek2A","ERK/MAPK targets","CREB phosphorylation","Formation of HIV-1 elongation complex containing HIV-1 Tat","ERKs are inactivated"}

> <broad_targets>
{ABL1,BCR,CAMK1D,CAMK2G,CDK2,FRK,FYN,HCK,LYN,MAP2K1,MAP2K2,MAP3K2,MAP4K5,SRC,STK10,STK24,STK4,TNK2,TXK}

> <broad_moa>
{"Abl kinase inhibitor","Bcr-Abl kinase inhibitor","SRC inhibitor"}

> <synonyms>
{FT-0656231,FT0656231,S1014,Bosutinib,380843-75-4,380843754,SKI-606,SKI606,"Bosutinib (SKI-606)","Bosutinib (SKI606)","SKI 606",BOSULIF,UNII-5018V4AEZ0,UNII5018V4AEZ0,"BOSUTINIB ISOMER 1",CHEMBL288441
,CHEBI:39112,5018V4AEZ0,SKI-606),SKI606),MFCD07367846,SK-606,SK606,"Bosutinib (USAN)","Bosutinib (USAN:INN)",NCGC002,T0152,B1709,SY-Bosutinib,bosutinib,BOSUTINIB}

> <pdid>
PD004099

> <targets>
{Multi Kinase Inhibitors (Abl,Src),ABL,SRC,Autophagy,Bcr-Abl,Src}

> <classes>
{Bcr-Abl inhibitor,Autophagy,Protein Tyrosine Kinase/RTK}

> <pubchem_cids>
{5328940}

$$$$
NCI_AOD5_2014
  SciTegic11012412592D

 73 76  0  0  1  0            999 V2000
    6.9056    4.5744    0.0000 C   0  0
    6.6527    6.0529    0.0000 O   0  0
    5.2453    6.5743    0.0000 C   0  0  2  0  0  0
    4.0927    5.6144    0.0000 C   0  0
    2.6850    6.1326    0.0000 C   0  0  1  0  0  0
    2.4301    7.6108    0.0000 C   0  0
    3.5827    8.5707    0.0000 C   0  0
    4.9903    8.0525    0.0000 C   0  0  1  0  0  0
    6.1416    9.0153    0.0000 O   0  0
    5.8843   10.4939    0.0000 C   0  0
    4.4758   11.0097    0.0000 O   0  0
    7.0356   11.4568    0.0000 C   0  0
    8.1867   12.4185    0.0000 C   0  0
    6.7783   12.9354    0.0000 C   0  0
    7.9289   13.8977    0.0000 O   0  0
    8.4448   10.9408    0.0000 C   0  0
    9.5964   11.9020    0.0000 O   0  0
    1.5337    5.1698    0.0000 C   0  0
    1.7909    3.6911    0.0000 C   0  0  1  0  0  0
    3.1995    3.1753    0.0000 C   0  0
    0.6400    2.7300    0.0000 C   0  0  2  0  0  0
    0.8000    1.1200    0.0000 C   0  0
    2.0600    0.3500    0.0000 C   0  0
    1.8870   -1.1400    0.0000 O   0  0
    3.4300    0.8000    0.0000 C   0  0  2  0  0  0
    3.8662    2.2352    0.0000 C   0  0
    4.3600   -0.3900    0.0000 C   0  0
    5.8000   -0.4000    0.0000 C   0  0
    6.6151    0.8592    0.0000 C   0  0
    6.4400   -1.8000    0.0000 C   0  0  1  0  0  0
    7.9345   -1.9281    0.0000 O   0  0
    5.5100   -3.1600    0.0000 C   0  0  1  0  0  0
    4.0182   -3.2790    0.0000 O   0  0
    3.1659   -2.0447    0.0000 C   0  0
    6.5100   -4.2800    0.0000 C   0  0
    7.9504   -3.8613    0.0000 O   0  0
    6.2500   -5.8600    0.0000 C   0  0  2  0  0  0
    7.5042   -6.6827    0.0000 C   0  0
    4.8700   -6.7500    0.0000 C   0  0
    3.3400   -6.2300    0.0000 C   0  0  2  0  0  0
    2.3025   -7.3134    0.0000 C   0  0
    2.7800   -4.7900    0.0000 C   0  0
    1.1200   -4.8600    0.0000 C   0  0
    0.1200   -3.6900    0.0000 C   0  0
   -1.4100   -4.1500    0.0000 C   0  0
   -2.6300   -3.1700    0.0000 C   0  0
   -4.1200   -3.7800    0.0000 C   0  0
   -4.3154   -5.2672    0.0000 C   0  0
   -5.3700   -2.8300    0.0000 C   0  0  2  0  0  0
   -6.8600   -3.4400    0.0000 C   0  0
   -7.8600   -2.2400    0.0000 C   0  0  2  0  0  0
   -9.2500   -2.5000    0.0000 C   0  0
  -10.1800   -1.4400    0.0000 C   0  0
   -9.7100    0.0100    0.0000 C   0  0  1  0  0  0
  -10.7377    1.1027    0.0000 C   0  0
   -8.0800    0.4300    0.0000 C   0  0  1  0  0  0
   -8.4778    1.8763    0.0000 O   0  0
   -7.2300   -0.9300    0.0000 O   0  0
   -6.6100    0.8600    0.0000 C   0  0
   -5.5855   -0.2356    0.0000 O   0  0
   -6.1000    2.2500    0.0000 C   0  0
   -7.0129    3.4402    0.0000 O   0  0
   -4.5400    2.3900    0.0000 N   0  0
   -5.4800    3.8300    0.0000 C   0  0
   -4.8400    5.2900    0.0000 C   0  0
   -3.4600    5.5000    0.0000 C   0  0
   -2.6400    4.4900    0.0000 C   0  0
   -3.1200    3.1200    0.0000 C   0  0  1  0  0  0
   -1.9000    2.2900    0.0000 C   0  0
   -1.8545    0.7907    0.0000 O   0  0
   -0.7100    3.2100    0.0000 O   0  0
   -5.1613   -1.3445    0.0000 O   0  0
   -3.7708   -0.7819    0.0000 C   0  0
  1  2  1  0
  3  2  1  6
  3  4  1  0
  4  5  1  0
  5  6  1  0
  6  7  1  0
  7  8  1  0
  8  3  1  0
  8  9  1  1
  9 10  1  0
 10 11  2  0
 10 12  1  0
 12 13  1  0
 12 14  1  0
 14 15  1  0
 12 16  1  0
 16 17  1  0
  5 18  1  6
 18 19  1  0
 19 20  1  1
 19 21  1  0
 21 22  1  6
 22 23  1  0
 23 24  2  0
 23 25  1  0
 25 26  1  6
 25 27  1  0
 27 28  2  0
 28 29  1  0
 28 30  1  0
 30 31  1  1
 30 32  1  0
 32 33  1  6
 33 34  1  0
 32 35  1  0
 35 36  2  0
 35 37  1  0
 37 38  1  6
 37 39  1  0
 39 40  1  0
 40 41  1  6
 40 42  1  0
 42 43  2  0
 43 44  1  0
 44 45  2  0
 45 46  1  0
 46 47  2  0
 47 48  1  0
 47 49  1  0
 49 50  1  0
 51 50  1  6
 51 52  1  0
 52 53  1  0
 53 54  1  0
 54 55  1  1
 54 56  1  0
 56 57  1  1
 56 58  1  0
 58 51  1  0
 56 59  1  0
 59 60  2  0
 59 61  1  0
 61 62  2  0
 61 63  1  0
 63 64  1  0
 64 65  1  0
 65 66  1  0
 66 67  1  0
 68 67  1  1
 68 63  1  0
 68 69  1  0
 69 70  2  0
 69 71  1  0
 71 21  1  0
 49 72  1  6
 72 73  1  0
M  END
> <name>
NCI_AOD5_2014

> <id>
2664

> <plate>
NCI_V5_B

> <well>
D3

> <supplier_cmpd_name>
Temsirolimus

> <ctcr_id>
4610

> <supplier_cmpd_id>
Temsirolimus

> <smiles>
CO[C@@H]1C[C@@H](CC[C@H]1OC(=O)C(C)(CO)CO)C[C@@H](C)[C@@H]2CC(=O)[C@H](C)/C=C(C)/[C@@H](O)[C@@H](OC)C(=O)[C@H](C)C[C@H](C)\C=C\C=C\C=C(C)\[C@H](C[C@@H]3CC[C@@H](C)[C@@](O)(O3)C(=O)C(=O)N4CCCC[C@H]4C(=
O)O2)OC

> <pd_targets>
{MTOR,ABCC2,ABCC3,ABCC4,ABCB11,FKBP1A}

> <pathway_gtopdb>
{Enzyme,Transporter,Kinase,"Primary active transporter",Isomerase,"Protein Kinase","ATP-binding cassette","Atypical protein kinase group","ABCC subfamily","ABCB subfamily","Atypical protein kinase PIK
K family","Atypical protein kinase FRAP subfamily"}

> <pathway_chembl>
{Enzymes,Transporters,"Kinases (EC 2.7.x.x)","ATP-binding cassette transporter family","Peptidyl-prolyl cis/trans isomerases",Atypical,"ABCC subfamily","ABCB subfamily","Phosphatidyl inositol 3' kinas
e-related kinases (PIKK) family","FRAP subfamily"}

> <pathway_reactome>
{"Gene expression (Transcription)",Disease,Metabolism,Hemostasis,"RNA Polymerase II Transcription","Disorders of transmembrane transporters","Metabolism of lipids","Platelet activation","signaling and
 aggregation","Diseases of signal transduction by growth factor receptors and second messengers","Generic Transcription Pathway","ABC transporter disorders","Metabolism of steroids","Response to eleva
ted platelet cytosolic Ca2+","Signaling by TGF-beta Receptor Complex in Cancer","Transcriptional Regulation by TP53","Defective ABCC2 causes DJS","Bile acid and bile salt metabolism","Platelet degranu
lation","Loss of Function of TGFBR1 in Cancer","Regulation of TP53 Activity","Recycling of bile acids and salts","Synthesis of bile acids and bile salts","TGFBR1 LBD Mutants in Cancer","Regulation of 
TP53 Expression and Degradation","Synthesis of bile acids and bile salts via 7alpha-hydroxycholesterol","Regulation of TP53 Degradation"}

> <broad_targets>
{MTOR}

> <broad_moa>
{"mTOR inhibitor"}

> <synonyms>
{Temsirolimus,CCI-779,CCI779,Torisel,162635-04-3,162635043,UNII-624KN6GM2T,UNII624KN6GM2T,624KN6GM2T,CHEMBL1201182,42-(3-Hydroxy-2-methylpropanoate,42(3Hydroxy2methylpropanoate,MFCD00934421,NCGC001675
18-01,NCGC0016751801,"Cci 779","Rapamycin 42-(3-hydroxy-2-(hydroxymethyl)-2-methylpropanoate)","Rapamycin 42(3hydroxy2(hydroxymethyl)2methylpropanoate)","Temsirolimus (CCI-779","Temsirolimus (CCI779",
S1044,temsirolimus,"Temsirolimus (CCI-779, NSC 683864)"}

> <pdid>
PD003551

> <targets>
{mTOR,Apoptosis,Autophagy}

> <classes>
{Kinase inhibitor,Apoptosis,Autophagy,PI3K/Akt/mTOR}

> <pubchem_cids>
{6918289}

$$$$
